geometry optimzed in LAMMPS
_audit_creation_date              2020-11-30 
_audit_creation_method            'lammps2cif' 
_symmetry_space_group_name_H-M    'P1' 
_symmetry_Int_Tables_number       1 
_symmetry_cell_setting            triclinic 
loop_ 
_symmetry_equiv_pos_as_xyz 
  x,y,z 
_cell_length_a                    30.436531145585253 
_cell_length_b                    27.50684269514819 
_cell_length_c                    56.05067743535478 
_cell_angle_alpha                 90.80884155803206 
_cell_angle_beta                  90.15995343678838 
_cell_angle_gamma                 90.39514316531485 
loop_ 
_atom_site_label 
_atom_site_type_symbol 
_atom_site_fract_x 
_atom_site_fract_y 
_atom_site_fract_z 
_atom_site_charge 
O1          O  0.89978815  0.42852684  0.79987776    -0.75450
O2          O  0.93954247  0.36885964  0.78152799    -0.54350
C3          C  0.90642094  0.38420170  0.79385994     0.78280
O4          O  0.92137837  0.59653627  0.71179075    -0.60050
O5          O  0.94544056  0.65273690  0.73885079    -0.53080
C6          C  0.92451129  0.64060971  0.71956803     0.70300
O7          O  0.91152639  0.43332589  0.71088673    -0.74610
O8          O  0.94527891  0.37351893  0.73165042    -0.55170
C9          C  0.91849998  0.38827105  0.71550562     0.76300
O10         O  0.91056673  0.58573465  0.80869732    -0.59750
O11         O  0.94662430  0.65021214  0.79359540    -0.52870
C12         C  0.91728080  0.63135679  0.80745860     0.72890
Zr13       Zr  0.93311579  0.50695200  0.79603688     2.54710
O14         O  0.85393527  0.51150502  0.80153423    -0.80310
O15         O  0.94345005  0.49589472  0.83871678    -0.93730
Zr16       Zr  0.93218338  0.51413390  0.72613100     2.64680
O17         O  0.85327728  0.51944080  0.73276382    -0.98690
O18         O  0.92414551  0.51375407  0.68288822    -0.80750
O19         O  0.93088187  0.46314015  0.75966911    -0.84110
O20         O  0.93123493  0.55871431  0.76263946    -2.18810
O21         O  0.07022733  0.58520986  0.81658610    -0.67500
O22         O  0.05268845  0.64601616  0.79132807    -0.52060
C23         C  0.07441240  0.62879005  0.80925359     0.71270
O24         O  0.09163555  0.43371770  0.71896898    -0.60400
O25         O  0.04396924  0.37494520  0.73081497    -0.52380
C26         C  0.07896629  0.38903345  0.71999478     0.73080
O27         O  0.07657140  0.59626529  0.71311214    -0.71800
O28         O  0.03876592  0.65288742  0.73486352    -0.50470
C29         C  0.06531188  0.64037928  0.71790287     0.74460
O30         O  0.08668208  0.42895619  0.80482831    -0.67130
O31         O  0.05088276  0.37083507  0.78239114    -0.54330
C32         C  0.08123217  0.38530038  0.79712856     0.72840
Zr33       Zr  0.06056419  0.50862660  0.79569380     2.77540
O34         O  0.13515869  0.51110995  0.77972708    -0.97880
O35         O  0.08067546  0.49679094  0.83728065    -0.78700
Zr36       Zr  0.06045011  0.51419793  0.72650642     2.70070
O37         O  0.13965678  0.52542355  0.72314479    -0.79950
O38         O  0.04913106  0.50190527  0.68389890    -0.99030
Zr39       Zr  0.99531979  0.41482569  0.75910702     2.21500
Zr40       Zr  0.99601479  0.60848554  0.76470207     2.11130
O41         O  0.06155817  0.56094095  0.76253757    -2.47720
O42         O  0.06013691  0.46332769  0.75999440    -0.79740
O43         O  0.99643854  0.55628810  0.79840621    -0.71930
O44         O  0.99611139  0.46563427  0.72465902    -2.32890
O45         O  0.99674763  0.45868440  0.79604692    -2.29100
O46         O  0.99655207  0.56243197  0.72803629    -0.73690
H47         H  0.90539696  0.57885452  0.76318553     0.78300
H48         H  0.99641305  0.44611761  0.71020000     0.79390
H49         H  0.08695197  0.58216013  0.76271326     0.81620
H50         H  0.99695943  0.43682809  0.80938648     0.79220
H51         H  0.94766007  0.49207866  0.67694947     0.42260
H52         H  0.02494937  0.52417967  0.67981849     0.41230
H53         H  0.15266224  0.49873354  0.73242351     0.40910
H54         H  0.14538082  0.54530150  0.77997264     0.38840
H55         H  0.05394116  0.50514009  0.84642941     0.41970
H56         H  0.97391922  0.50695849  0.84193430     0.36760
H57         H  0.84247791  0.52192665  0.78588135     0.42870
H58         H  0.84793826  0.55357936  0.73768299     0.39290
H59         H  0.15379943  0.49400213  0.79136351     0.44210
H60         H  0.94410772  0.46025973  0.84092171     0.42930
H61         H  0.84026738  0.51683769  0.71661902     0.43070
H62         H  0.07561468  0.51610798  0.67646609     0.43420
C63         C  0.75640861  0.29917102  0.83831557     0.02980
C64         C  0.73434183  0.32785084  0.85558807    -0.13170
C65         C  0.69428577  0.31153223  0.86538653     0.00480
C66         C  0.67820954  0.26545779  0.85835875    -0.11700
C67         C  0.69815483  0.23855870  0.83978841     0.02970
C68         C  0.73750710  0.25555531  0.83013638    -0.11120
H69         H  0.74752319  0.36313675  0.86076429     0.08560
H70         H  0.64750992  0.25252062  0.86580193     0.06090
H71         H  0.75227128  0.23639937  0.81518289     0.05940
O72         O  0.55678168  0.08141138  0.79908760    -0.75450
O73         O  0.61088149  0.06433901  0.77274061    -0.54350
C74         C  0.59596106  0.08666079  0.79150396     0.78280
O75         O  0.41831794  0.90913246  0.79288377    -0.60050
O76         O  0.36569119  0.94830192  0.77156286    -0.53080
C77         C  0.37812905  0.91982073  0.78827323     0.70300
O78         O  0.56574288  0.90723311  0.79064812    -0.74610
O79         O  0.61824291  0.95154545  0.77134093    -0.55170
C80         C  0.60579486  0.91874836  0.78603673     0.76300
O81         O  0.41451193  0.09585759  0.78860267    -0.59750
O82         O  0.36296109  0.05360014  0.76700465    -0.52870
C83         C  0.37486593  0.08668589  0.78224272     0.72890
Zr84       Zr  0.48793932  0.07201725  0.77839097     2.54710
O85         O  0.47638484  0.08600908  0.82088120    -0.80310
O86         O  0.49079279  0.15905508  0.77057008    -0.93730
Zr87       Zr  0.49166495  0.92833149  0.77862249     2.64680
O88         O  0.49885410  0.92344964  0.82178464    -0.98690
O89         O  0.48851890  0.84017162  0.77428076    -0.80750
O90         O  0.53226704  0.00189474  0.78019580    -0.84110
O91         O  0.44751456  0.99902174  0.77921025    -2.18810
O92         O  0.41648301  0.08876188  0.69400538    -0.67500
O93         O  0.36654056  0.04973135  0.71712378    -0.52060
C94         C  0.37662150  0.07847243  0.70011461     0.71270
O95         O  0.56914712  0.90782469  0.69548025    -0.60400
O96         O  0.61810346  0.95248742  0.71790372    -0.52380
C97         C  0.60844831  0.92093027  0.70141407     0.73080
O98         O  0.42162735  0.90108898  0.69392187    -0.71800
O99         O  0.36940561  0.93937079  0.71651987    -0.50470
C100        C  0.38154136  0.90976742  0.69984455     0.74460
O101        O  0.56646068  0.09875452  0.69822934    -0.67130
O102        O  0.61613044  0.05947904  0.72070921    -0.54330
C103        C  0.60630863  0.09104893  0.70504556     0.72840
Zr104      Zr  0.49155703  0.07061970  0.70785062     2.77540
O105        O  0.49619269  0.06581689  0.66452728    -0.97880
O106        O  0.48937875  0.15902955  0.70852249    -0.78700
Zr107      Zr  0.49436083  0.92686674  0.70821940     2.70070
O108        O  0.49535924  0.92480404  0.66480279    -0.79950
O109        O  0.49702786  0.83886465  0.71186994    -0.99030
Zr110      Zr  0.57633361  0.00360237  0.74535879     2.21500
Zr111      Zr  0.40656914  0.99671550  0.74308868     2.11130
O112        O  0.45002321  0.99725122  0.70752925    -2.47720
O113        O  0.53603703  0.00030606  0.70866834    -0.79740
O114        O  0.44701736  0.07073699  0.74260586    -0.71930
O115        O  0.53603708  0.92874940  0.74403307    -2.32890
O116        O  0.53249604  0.07463326  0.74400032    -2.29100
O117        O  0.44968428  0.92460181  0.74295904    -0.73690
H118        H  0.42881397  0.00001358  0.79309166     0.78300
H119        H  0.55564778  0.90129245  0.74404321     0.79390
H120        H  0.43158495  0.99601297  0.69348291     0.81620
H121        H  0.55098970  0.10324991  0.74439189     0.79220
H122        H  0.51666546  0.83127767  0.76661253     0.42260
H123        H  0.46999540  0.83027664  0.72069710     0.41230
H124        H  0.50876713  0.95628448  0.66035698     0.40910
H125        H  0.47112445  0.04483886  0.65957773     0.38840
H126        H  0.46135437  0.16706932  0.71649586     0.41970
H127        H  0.46896914  0.16404993  0.75779761     0.36760
H128        H  0.47410276  0.05300485  0.82761798     0.42870
H129        H  0.48450733  0.95321594  0.82798081     0.39290
H130        H  0.48807407  0.09871766  0.65917009     0.44210
H131        H  0.51944836  0.16597733  0.76302304     0.42930
H132        H  0.47923725  0.89639357  0.82648246     0.43070
H133        H  0.49175766  0.82629671  0.69546314     0.43420
C134        C  0.22316653  0.72997298  0.85288439     0.02980
C135        C  0.24034231  0.77224109  0.84308406    -0.13170
C136        C  0.28529273  0.78261387  0.84458880     0.00480
C137        C  0.31287902  0.75172394  0.85778978    -0.11700
C138        C  0.29576013  0.71135457  0.87019452     0.02970
C139        C  0.25026876  0.70146967  0.86780400    -0.11120
H140        H  0.21953963  0.79453899  0.83206119     0.08560
H141        H  0.34791007  0.75896923  0.85823279     0.06090
H142        H  0.23618920  0.66988628  0.87625573     0.05940
C143        C  0.76074450  0.72116179  0.84558393     0.02980
C144        C  0.74173762  0.75799913  0.83202912    -0.13170
C145        C  0.69865470  0.77334370  0.83631221     0.00480
C146        C  0.67248429  0.74862627  0.85283373    -0.11700
C147        C  0.68992456  0.71052799  0.86609468     0.02970
C148        C  0.73491513  0.69982343  0.86365903    -0.11120
H149        H  0.75987258  0.77430844  0.81761122     0.08560
H150        H  0.63841539  0.75880737  0.85520406     0.06090
H151        H  0.74916231  0.67295519  0.87520586     0.05940
C152        C  0.23482674  0.29889454  0.83698573     0.02980
C153        C  0.26228975  0.32756470  0.85187403    -0.13170
C154        C  0.30282287  0.30949683  0.86032791     0.00480
C155        C  0.31595994  0.26276671  0.85239831    -0.11700
C156        C  0.28993430  0.23578609  0.83602679     0.02970
C157        C  0.24889790  0.25322554  0.82924289    -0.11120
H158        H  0.25228953  0.36416346  0.85659968     0.08560
H159        H  0.34730186  0.24831908  0.85795877     0.06090
H160        H  0.22932716  0.23284763  0.81629693     0.05940
C161        C  0.22375053  0.17397284  0.66112135     0.02980
C162        C  0.20872000  0.21381688  0.67459861    -0.13170
C163        C  0.17108002  0.23875629  0.66746152     0.00480
C164        C  0.14906674  0.22463329  0.64653748    -0.11700
C165        C  0.16254489  0.18364853  0.63348835     0.02970
C166        C  0.20007830  0.15842681  0.64086388    -0.11120
H167        H  0.22589827  0.22495872  0.69075932     0.08560
H168        H  0.12032590  0.24457727  0.64090919     0.06090
H169        H  0.21077430  0.12656848  0.63093699     0.05940
C170        C  0.15343383  0.85052586  0.63260059     0.02980
C171        C  0.13379990  0.80876605  0.64196123    -0.13170
C172        C  0.15560147  0.78157184  0.65903961     0.00480
C173        C  0.19980629  0.79190997  0.66416251    -0.11700
C174        C  0.21949243  0.83615538  0.65722610     0.02970
C175        C  0.19467315  0.86610062  0.64178748    -0.11120
H176        H  0.10103800  0.79785634  0.63637034     0.08560
H177        H  0.21790362  0.76582829  0.67442314     0.06090
H178        H  0.20697106  0.90139213  0.63671302     0.05940
C179        C  0.75277526  0.19085937  0.65937314     0.02980
C180        C  0.77941238  0.22306716  0.67261874    -0.13170
C181        C  0.81878699  0.24072450  0.66304564     0.00480
C182        C  0.83262638  0.22348522  0.64071358    -0.11700
C183        C  0.80631927  0.19110785  0.62722036     0.02970
C184        C  0.76521550  0.17693779  0.63624329    -0.11120
H185        H  0.76965311  0.23406850  0.69047155     0.08560
H186        H  0.86422483  0.23512703  0.63392635     0.06090
H187        H  0.74410247  0.15265537  0.62594675     0.05940
C188        C  0.82406052  0.83913026  0.63056488     0.02980
C189        C  0.84872761  0.80654485  0.64407654    -0.13170
C190        C  0.83228189  0.78934655  0.66575718     0.00480
C191        C  0.79157843  0.80615712  0.67420527    -0.11700
C192        C  0.76623326  0.83806810  0.66048983     0.02970
C193        C  0.78219910  0.85284708  0.63826296    -0.11120
H194        H  0.88091452  0.79535339  0.63797084     0.08560
H195        H  0.77969897  0.79430460  0.69139098     0.06090
H196        H  0.76317608  0.87766497  0.62757193     0.05940
O197        O  0.58209032  0.60706591  0.95186488    -0.75450
O198        O  0.55058684  0.56211874  0.92212539    -0.54350
C199        C  0.57792404  0.59530575  0.92977115     0.78280
O200        O  0.58202989  0.41816680  0.02972867    -0.60050
O201        O  0.54109637  0.45703788  0.05826127    -0.53080
C202        C  0.57165638  0.42753330  0.05149766     0.70300
O203        O  0.58679060  0.41843435  0.95101536    -0.74610
O204        O  0.54619919  0.45147003  0.92133632    -0.55170
C205        C  0.57752377  0.42362706  0.92885328     0.76300
O206        O  0.57857383  0.60838090  0.03085280    -0.59750
O207        O  0.53882931  0.56834481  0.05885753    -0.52870
C208        C  0.56824116  0.59971285  0.05263587     0.72890
Zr209      Zr  0.55710332  0.58222660  0.99080571     2.54710
O210        O  0.63630614  0.57387581  0.99451401    -0.80310
O211        O  0.55584742  0.67066782  0.98960392    -0.93730
Zr212      Zr  0.55788842  0.43959079  0.99000412     2.64680
O213        O  0.63773545  0.43489453  0.98909380    -0.98690
O214        O  0.54730457  0.35189402  0.99175798    -0.80750
O215        O  0.55916355  0.51081999  0.96675767    -0.84110
O216        O  0.55776965  0.51124330  0.01391170    -2.18810
O217        O  0.40357873  0.60554119  0.02942401    -0.67500
O218        O  0.44499758  0.56970000  0.05777301    -0.52060
C219        C  0.41460453  0.59929716  0.05137619     0.71270
O220        O  0.40474482  0.41441521  0.94867671    -0.60400
O221        O  0.44240293  0.45592541  0.92013678    -0.52380
C222        C  0.41265222  0.42498973  0.92678512     0.73080
O223        O  0.40996378  0.40911456  0.02845402    -0.71800
O224        O  0.43909892  0.45837818  0.05714352    -0.50470
C225        C  0.41416123  0.42258123  0.05040949     0.74460
O226        O  0.40545673  0.60349179  0.94994375    -0.67130
O227        O  0.44556726  0.56534909  0.92077364    -0.54330
C228        C  0.41557721  0.59543002  0.92801307     0.72840
Zr229      Zr  0.42843176  0.58044511  0.98953915     2.77540
O230        O  0.34844256  0.58133248  0.98818957    -0.97880
O231        O  0.43709375  0.66842215  0.98935150    -0.78700
Zr232      Zr  0.42959662  0.43733610  0.98867243     2.70070
O233        O  0.34996089  0.44216438  0.99080151    -0.79950
O234        O  0.43173704  0.34897375  0.98566831    -0.99030
Zr235      Zr  0.49538776  0.50916306  0.94178256     2.21500
Zr236      Zr  0.49160095  0.51112811  0.03667139     2.11130
O237        O  0.42681079  0.50908991  0.01253473    -2.47720
O238        O  0.42981016  0.50868939  0.96545002    -0.79740
O239        O  0.49204839  0.58332153  0.01374318    -0.71930
O240        O  0.49457690  0.43704144  0.96531696    -2.32890
O241        O  0.49353729  0.58141067  0.96628699    -2.29100
O242        O  0.49304177  0.43803197  0.01314122    -0.73690
H243        H  0.58327435  0.51199979  0.02420431     0.78300
H244        H  0.49494954  0.40843022  0.95512936     0.79390
H245        H  0.40070368  0.50876824  0.02229338     0.81620
H246        H  0.49376875  0.60992008  0.95642180     0.79220
H247        H  0.52412404  0.34424427  0.97984966     0.42260
H248        H  0.44516896  0.33842009  0.00083069     0.41230
H249        H  0.34331667  0.47638369  0.98703710     0.40910
H250        H  0.33893798  0.56439378  0.00278420     0.38840
H251        H  0.46140875  0.67530991  0.00069794     0.41970
H252        H  0.53746285  0.67852223  0.97559797     0.36760
H253        H  0.64361164  0.54628647  0.98374300     0.42870
H254        H  0.64794532  0.46146813  0.99986100     0.39290
H255        H  0.34064320  0.61579062  0.99111913     0.44210
H256        H  0.58601828  0.68027649  0.98497214     0.42930
H257        H  0.64503992  0.40461630  0.99754163     0.43070
H258        H  0.40061808  0.33854604  0.98673820     0.43420
C259        C  0.30970312  0.70374587  0.12292407     0.02980
C260        C  0.32075136  0.75056082  0.13148826    -0.13170
C261        C  0.29413656  0.77384253  0.14849037     0.00480
C262        C  0.25582902  0.75100904  0.15639556    -0.11700
C263        C  0.24605699  0.70294428  0.14957217     0.02970
C264        C  0.27286892  0.67968562  0.13250564    -0.11120
H265        H  0.35086221  0.76794514  0.12568149     0.08560
H266        H  0.23557873  0.76930029  0.16958508     0.06090
H267        H  0.26587536  0.64243864  0.12713351     0.05940
C268        C  0.73509826  0.32991145  0.15125123     0.02980
C269        C  0.70882390  0.35099244  0.13360022    -0.13170
C270        C  0.67644592  0.32346708  0.12124791     0.00480
C271        C  0.67004431  0.27474215  0.12806981    -0.11700
C272        C  0.69181567  0.25606978  0.14820029     0.02970
C273        C  0.72598842  0.28271642  0.15875396    -0.11120
H274        H  0.71369408  0.38906221  0.12962073     0.08560
H275        H  0.64567683  0.25224054  0.11911529     0.06090
H276        H  0.74304504  0.26840981  0.17411791     0.05940
C277        C  0.73868267  0.70623052  0.15001945     0.02980
C278        C  0.71517735  0.68370909  0.13126199    -0.13170
C279        C  0.67760672  0.70551301  0.12176472     0.00480
C280        C  0.66501102  0.75132439  0.13059505    -0.11700
C281        C  0.68730750  0.77363961  0.14993062     0.02970
C282        C  0.72501609  0.75159878  0.15898359    -0.11120
H283        H  0.72477185  0.64793429  0.12492116     0.08560
H284        H  0.63503139  0.76750530  0.12400548     0.06090
H285        H  0.74160579  0.76757315  0.17435422     0.05940
O286        O  0.40667637  0.93101673  0.19192716    -0.75450
O287        O  0.35501829  0.96382584  0.21673577    -0.54350
C288        C  0.36749127  0.93472362  0.19982856     0.78280
O289        O  0.55640830  0.92055268  0.28576992    -0.60050
O290        O  0.60788899  0.96622293  0.26644683    -0.53080
C291        C  0.59639928  0.93289262  0.28116524     0.70300
O292        O  0.40687757  0.91776094  0.28453841    -0.74610
O293        O  0.35532048  0.96721623  0.26830140    -0.55170
C294        C  0.36673479  0.93125640  0.28122767     0.76300
O295        O  0.54882340  0.92980870  0.18962832    -0.59750
O296        O  0.60402109  0.95831421  0.21335304    -0.52870
C297        C  0.58878753  0.92958927  0.19664717     0.72890
Zr298      Zr  0.47866519  0.95497109  0.20482314     2.54710
O299        O  0.46817092  0.86863003  0.21162572    -0.80310
O300        O  0.47852299  0.95138080  0.16138616    -0.93730
Zr301      Zr  0.48193141  0.94511691  0.27485805     2.64680
O302        O  0.48113853  0.85654190  0.27399060    -0.98690
O303        O  0.48354583  0.94841212  0.31825941    -0.80750
O304        O  0.43756310  0.94920068  0.24020720    -0.84110
O305        O  0.52355911  0.94815913  0.23903673    -2.18810
O306        O  0.55044400  0.11138844  0.19184938    -0.67500
O307        O  0.60527884  0.08173070  0.21492606    -0.52060
C308        C  0.59061986  0.11025997  0.19850794     0.71270
O309        O  0.41103842  0.11794458  0.28965859    -0.60400
O310        O  0.35895683  0.06936772  0.27287093    -0.52380
C311        C  0.37078051  0.10483737  0.28655360     0.73080
O312        O  0.55868803  0.10939711  0.29175077    -0.71800
O313        O  0.60949830  0.07078162  0.26831209    -0.50470
C314        C  0.59836787  0.10003658  0.28544714     0.74460
O315        O  0.40781154  0.12428356  0.20151773    -0.67130
O316        O  0.35395974  0.08223786  0.22068983    -0.54330
C317        C  0.36757131  0.11682525  0.20720586     0.72840
Zr318      Zr  0.48070479  0.09677454  0.21059763     2.77540
O319        O  0.48542828  0.18011241  0.22610272    -0.97880
O320        O  0.47270296  0.12172791  0.16934481    -0.78700
Zr321      Zr  0.48419783  0.08725428  0.27999671     2.70070
O322        O  0.49006367  0.17452892  0.28776951    -0.79950
O323        O  0.48301437  0.07109008  0.32256605    -0.99030
Zr324      Zr  0.39550920  0.02128148  0.24276331     2.21500
Zr325      Zr  0.56843743  0.01975788  0.23994921     2.11130
O326        O  0.52638203  0.09215635  0.24449918    -2.47720
O327        O  0.43903736  0.09308830  0.24575006    -0.79740
O328        O  0.52298171  0.02555537  0.20552404    -0.71930
O329        O  0.43945591  0.01659644  0.27826821    -2.32890
O330        O  0.43621181  0.02639724  0.20667208    -2.29100
O331        O  0.52682656  0.01585056  0.27624207    -0.73690
H332        H  0.54136357  0.91930293  0.23792751     0.78300
H333        H  0.42119790  0.01529552  0.29231289     0.79390
H334        H  0.54613210  0.11968523  0.24540605     0.81620
H335        H  0.41709434  0.02845759  0.19293814     0.79220
H336        H  0.46346740  0.97507449  0.32280143     0.42260
H337        H  0.51000426  0.05212206  0.32543632     0.41230
H338        H  0.46176420  0.18881559  0.28284118     0.40910
H339        H  0.46819964  0.17983412  0.24099356     0.38840
H340        H  0.46717438  0.09099938  0.16038363     0.41970
H341        H  0.45504540  0.97398612  0.15654604     0.36760
H342        H  0.48587642  0.86127445  0.22592193     0.42870
H343        H  0.51025032  0.84701896  0.26770818     0.39290
H344        H  0.51590505  0.18580172  0.23165742     0.44210
H345        H  0.46691431  0.91862091  0.15721986     0.42930
H346        H  0.48196400  0.84735452  0.29100415     0.43070
H347        H  0.48913119  0.10308884  0.33021970     0.43420
O348        O  0.06463789  0.61429572  0.19302699    -0.75450
O349        O  0.11586128  0.57522396  0.21553844    -0.54350
C350        C  0.10448550  0.60455343  0.19892136     0.78280
O351        O  0.91838410  0.62374114  0.28510842    -0.60050
O352        O  0.86468616  0.57864015  0.26670268    -0.53080
C353        C  0.87799801  0.61448335  0.28002361     0.70300
O354        O  0.06388124  0.60932457  0.29161335    -0.74610
O355        O  0.11844076  0.56934462  0.27221461    -0.55170
C356        C  0.10445699  0.59794009  0.28895908     0.76300
O357        O  0.91670566  0.61527774  0.19435986    -0.59750
O358        O  0.86544264  0.57051804  0.21420058    -0.52870
C359        C  0.87672005  0.60301069  0.19906773     0.72890
Zr360      Zr  0.99097969  0.59126640  0.20594000     2.54710
O361        O  0.99174868  0.67978332  0.20628385    -0.80310
O362        O  0.98848992  0.58473859  0.16263594    -0.93730
Zr363      Zr  0.99094374  0.59351605  0.27626903     2.64680
O364        O  0.00508974  0.68052816  0.27418962    -0.98690
O365        O  0.97802042  0.60016192  0.31895453    -0.80750
O366        O  0.03439815  0.59458178  0.24131783    -0.84110
O367        O  0.94826769  0.59327280  0.24105155    -2.18810
O368        O  0.91588097  0.42181636  0.19529119    -0.67500
O369        O  0.86517498  0.46954434  0.21390151    -0.52060
C370        C  0.87595945  0.43504013  0.19945275     0.71270
O371        O  0.06291769  0.42301428  0.28636207    -0.60400
O372        O  0.11672264  0.46406139  0.26652863    -0.52380
C373        C  0.10311570  0.43119244  0.28091838     0.73080
O374        O  0.91911707  0.41684102  0.28481416    -0.71800
O375        O  0.86575009  0.45995543  0.26594076    -0.50470
C376        C  0.87909508  0.42464365  0.27904697     0.74460
O377        O  0.06496171  0.42334894  0.19479831    -0.67130
O378        O  0.11595395  0.47068120  0.21417084    -0.54330
C379        C  0.10482308  0.43701043  0.19913540     0.72840
Zr380      Zr  0.99080941  0.44807960  0.20618554     2.77540
O381        O  0.99254908  0.35958391  0.20530049    -0.97880
O382        O  0.99000538  0.45507530  0.16300150    -0.78700
Zr383      Zr  0.99035319  0.45095903  0.27682449     2.70070
O384        O  0.99211309  0.36317865  0.28152217    -0.79950
O385        O  0.98864838  0.46380997  0.31986190    -0.99030
Zr386      Zr  0.07651095  0.52168425  0.24227923     2.21500
Zr387      Zr  0.90533543  0.52034892  0.24189117     2.11130
O388        O  0.94843741  0.44837351  0.24132674    -2.47720
O389        O  0.03354765  0.44867373  0.24171911    -0.79740
O390        O  0.94763254  0.51938524  0.20601320    -0.71930
O391        O  0.03345407  0.52202942  0.27776895    -2.32890
O392        O  0.03401969  0.51992038  0.20623002    -2.29100
O393        O  0.94696497  0.52204568  0.27790484    -0.73690
H394        H  0.92993958  0.62173467  0.24061602     0.78300
H395        H  0.05135382  0.52097155  0.29199667     0.79390
H396        H  0.93021639  0.41964314  0.24076095     0.81620
H397        H  0.05273585  0.51949577  0.19234735     0.79220
H398        H  0.96668558  0.56777005  0.32347245     0.42260
H399        H  0.95753837  0.47110947  0.32347371     0.41230
H400        H  0.99057878  0.35000051  0.26500817     0.40910
H401        H  0.96961570  0.34949397  0.21672900     0.38840
H402        H  0.96925726  0.48180444  0.15987331     0.41970
H403        H  0.01066722  0.55993985  0.15846664     0.36760
H404        H  0.01870006  0.68897904  0.21524357     0.42870
H405        H  0.99200627  0.69038419  0.25883782     0.39290
H406        H  0.98054085  0.35027879  0.18943389     0.44210
H407        H  0.00111046  0.61578351  0.15700485     0.42930
H408        H  0.98606223  0.69520688  0.28659817     0.43070
H409        H  0.99338130  0.43109019  0.32650482     0.43420
C410        C  0.30476886  0.32788718  0.12220371     0.02980
C411        C  0.31559161  0.28273384  0.13209545    -0.13170
C412        C  0.28949153  0.26287146  0.15028530     0.00480
C413        C  0.25169708  0.28725645  0.15767216    -0.11700
C414        C  0.24182961  0.33324334  0.14881382     0.02970
C415        C  0.26809298  0.35324005  0.13084230    -0.11120
H416        H  0.34554374  0.26462830  0.12669910     0.08560
H417        H  0.23242857  0.27278263  0.17223064     0.06090
H418        H  0.26106475  0.38922810  0.12425955     0.05940
C419        C  0.17022704  0.21735453  0.36151430     0.02980
C420        C  0.20602069  0.19151439  0.35212568    -0.13170
C421        C  0.23302713  0.21202113  0.33482889     0.00480
C422        C  0.22352855  0.25794347  0.32595328    -0.11700
C423        C  0.18678992  0.28333949  0.33418037     0.02970
C424        C  0.16110515  0.26393972  0.35266052    -0.11120
H425        H  0.21240646  0.15478208  0.35791939     0.08560
H426        H  0.24262395  0.27214950  0.31127278     0.06090
H427        H  0.13267535  0.28368314  0.35901005     0.05940
C428        C  0.74295348  0.20025176  0.33230004     0.02980
C429        C  0.75796997  0.23921097  0.31837982    -0.13170
C430        C  0.79606071  0.26508669  0.32463392     0.00480
C431        C  0.82258191  0.24876638  0.34324587    -0.11700
C432        C  0.80943937  0.20869722  0.35662846     0.02970
C433        C  0.76817532  0.18696308  0.35225193    -0.11120
H434        H  0.74014424  0.24953611  0.30249770     0.08560
H435        H  0.85399365  0.26626339  0.34679976     0.06090
H436        H  0.75693367  0.15843008  0.36387139     0.05940
C437        C  0.18767299  0.75290724  0.33861337     0.02980
C438        C  0.21527949  0.78031698  0.32364381    -0.13170
C439        C  0.22743756  0.82812300  0.32981730     0.00480
C440        C  0.20648529  0.85174601  0.34876931    -0.11700
C441        C  0.17757744  0.82608927  0.36324382     0.02970
C442        C  0.17228265  0.77579897  0.35970764    -0.11120
H443        H  0.22739980  0.76509566  0.30706796     0.08560
H444        H  0.21280155  0.89002663  0.35229098     0.06090
H445        H  0.15425708  0.75556956  0.37287505     0.05940
C446        C  0.73798833  0.83300099  0.32922903     0.02980
C447        C  0.74717834  0.78524901  0.32210759    -0.13170
C448        C  0.78293375  0.76090530  0.33180096     0.00480
C449        C  0.80602513  0.78182330  0.35117896    -0.11700
C450        C  0.79896217  0.83068139  0.35809301     0.02970
C451        C  0.76514731  0.85624097  0.34635348    -0.11120
H452        H  0.72890129  0.76859976  0.30746595     0.08560
H453        H  0.83152659  0.76086714  0.35958082     0.06090
H454        H  0.76005983  0.89443767  0.35029523     0.05940
O455        O  0.06989412  0.92850562  0.53246664    -0.75450
O456        O  0.03225908  0.97537903  0.55918235    -0.54350
C457        C  0.06076302  0.94250878  0.55394937     0.78280
O458        O  0.07404863  0.11932145  0.45119701    -0.60050
O459        O  0.03901191  0.07448133  0.42219216    -0.53080
C460        C  0.06653137  0.10765777  0.42923163     0.70300
O461        O  0.07203340  0.12025057  0.53135119    -0.74610
O462        O  0.03359586  0.07579364  0.55824285    -0.55170
C463        C  0.06275234  0.10774055  0.55282146     0.76300
O464        O  0.07468713  0.92401785  0.45216038    -0.59750
O465        O  0.04282605  0.96892993  0.42323027    -0.52870
C466        C  0.07018820  0.93645440  0.43022992     0.72890
Zr467      Zr  0.04946070  0.95020346  0.49156674     2.54710
O468        O  0.12883162  0.95755576  0.49414394    -0.80310
O469        O  0.04828037  0.86168732  0.49129964    -0.93730
Zr470      Zr  0.05138782  0.09465250  0.49088333     2.64680
O471        O  0.13072854  0.08736329  0.49307456    -0.98690
O472        O  0.05343931  0.18315497  0.49076649    -0.80750
O473        O  0.04995410  0.02354174  0.51410640    -0.84110
O474        O  0.05273964  0.02129623  0.46809003    -2.18810
O475        O  0.89706701  0.92710707  0.44960318    -0.67500
O476        O  0.93882918  0.96509324  0.42143207    -0.52060
C477        C  0.90778317  0.93579622  0.42791094     0.71270
O478        O  0.89063646  0.11581936  0.52622923    -0.60400
O479        O  0.92941270  0.07733830  0.55532836    -0.52380
C480        C  0.89885324  0.10591111  0.54806784     0.73080
O481        O  0.90371343  0.11979907  0.44774878    -0.71800
O482        O  0.94456558  0.07750042  0.42069366    -0.50470
C483        C  0.91567127  0.10978065  0.42627899     0.74460
O484        O  0.89355821  0.93272261  0.52988528    -0.67130
O485        O  0.93604397  0.97114374  0.55739311    -0.54330
C486        C  0.90448553  0.94219800  0.55168777     0.72840
Zr487      Zr  0.91952491  0.95169488  0.48957024     2.77540
O488        O  0.83956415  0.95352217  0.49023742    -0.97880
O489        O  0.92195640  0.86328396  0.48995138    -0.78700
Zr490      Zr  0.92243438  0.09564150  0.48796131     2.70070
O491        O  0.84328741  0.10336587  0.48322426    -0.79950
O492        O  0.93524371  0.18264094  0.49255751    -0.99030
Zr493      Zr  0.98314329  0.02514371  0.53560650     2.21500
Zr494      Zr  0.98876258  0.02041196  0.44338962     2.11130
O495        O  0.92157428  0.02216784  0.46545021    -2.47720
O496        O  0.91853482  0.02520963  0.51174286    -0.79740
O497        O  0.98571382  0.94874952  0.46703334    -0.71930
O498        O  0.98527214  0.09770146  0.51296778    -2.32890
O499        O  0.98333002  0.95044230  0.51368735    -2.29100
O500        O  0.98844856  0.09464961  0.46588272    -0.73690
H501        H  0.07906014  0.02089016  0.45851165     0.78300
H502        H  0.98471982  0.12613352  0.52327884     0.79390
H503        H  0.89654045  0.02227936  0.45482296     0.81620
H504        H  0.98245047  0.92283798  0.52414318     0.79220
H505        H  0.03223376  0.19323796  0.50321861     0.42260
H506        H  0.95515236  0.19111047  0.47929932     0.41230
H507        H  0.83096230  0.07413292  0.49092660     0.40910
H508        H  0.83168092  0.98202477  0.48058098     0.38840
H509        H  0.94697439  0.85478761  0.47947451     0.41970
H510        H  0.02910285  0.85287590  0.50483055     0.36760
H511        H  0.13400908  0.98779482  0.50353002     0.42870
H512        H  0.13839968  0.06263536  0.48084467     0.39290
H513        H  0.83000106  0.92497533  0.48054981     0.44210
H514        H  0.07818376  0.85247247  0.49647125     0.42930
H515        H  0.14210450  0.11853392  0.48690956     0.43070
H516        H  0.90676478  0.19764547  0.48851717     0.43420
C517        C  0.80872229  0.88739980  0.39388647    -0.02000
C518        C  0.82778557  0.85608874  0.37647921     0.07680
C519        C  0.87442957  0.85073055  0.37681590    -0.02110
C520        C  0.90002339  0.87476540  0.39446989    -0.02120
C521        C  0.88114756  0.91018832  0.40941655     0.07810
C522        C  0.83539037  0.91697780  0.40873881    -0.02310
Br523      Br  0.80896057  0.96746204  0.42810123    -0.00860
Br524      Br  0.74646541  0.88617685  0.40017870    -0.00930
Br525      Br  0.95984866  0.85517574  0.40010836    -0.00890
Br526      Br  0.90588326  0.81353487  0.35304297    -0.00880
C527        C  0.14063977  0.89261916  0.41920956    -0.02000
C528        C  0.09894155  0.91109931  0.41219816     0.07680
C529        C  0.08535504  0.90370180  0.38810269    -0.02110
C530        C  0.11044193  0.87419400  0.37256885    -0.02120
C531        C  0.14993527  0.85327054  0.38042861     0.07810
C532        C  0.16525259  0.86305563  0.40357010    -0.02310
Br533      Br  0.22089714  0.83643859  0.41347672    -0.00860
Br534      Br  0.16835422  0.91224864  0.44883012    -0.00930
Br535      Br  0.09116633  0.86268605  0.34005300    -0.00890
Br536      Br  0.03442787  0.93551887  0.37498744    -0.00880
C537        C  0.85924434  0.14077559  0.36757397    -0.02000
C538        C  0.84059038  0.18609766  0.37343617     0.07680
C539        C  0.85253422  0.20961215  0.39490319    -0.02110
C540        C  0.88095192  0.18646912  0.41095385    -0.02120
C541        C  0.89358578  0.13737366  0.40694184     0.07810
C542        C  0.88288529  0.11487693  0.38477818    -0.02310
Br543      Br  0.89720077  0.04781150  0.37784910    -0.00860
Br544      Br  0.85635855  0.11655428  0.33515456    -0.00930
Br545      Br  0.90497828  0.22432707  0.43716001    -0.00890
Br546      Br  0.82987605  0.27347421  0.40232839    -0.00880
C547        C  0.13790583  0.14156263  0.41452333    -0.02000
C548        C  0.09224146  0.13485917  0.41116676     0.07680
C549        C  0.07153180  0.15730440  0.39164195    -0.02110
C550        C  0.09656698  0.18467619  0.37534089    -0.02120
C551        C  0.14189964  0.19323775  0.37955885     0.07810
C552        C  0.16176630  0.17316934  0.39991278    -0.02310
Br553      Br  0.22164502  0.19015272  0.40851496    -0.00860
Br554      Br  0.16959942  0.10334430  0.43729520    -0.00930
Br555      Br  0.06859757  0.20774970  0.34673286    -0.00890
Br556      Br  0.00876114  0.15195172  0.38735455    -0.00880
C557        C  0.17945979  0.39867355  0.19780097    -0.02000
C558        C  0.14055601  0.41221905  0.18582854     0.07680
C559        C  0.13637708  0.40225537  0.16103495    -0.02110
C560        C  0.16935548  0.37630155  0.14882990    -0.02120
C561        C  0.20775461  0.36256732  0.16095258     0.07810
C562        C  0.21327227  0.37533254  0.18524432    -0.02310
Br563      Br  0.26793185  0.36229021  0.20147018    -0.00860
Br564      Br  0.18678070  0.40935584  0.23173616    -0.00930
Br565      Br  0.16130156  0.35811814  0.11568894    -0.00890
Br566      Br  0.08718477  0.42656587  0.14308882    -0.00880
C567        C  0.11473915  0.64129634  0.32745811    -0.02000
C568        C  0.13454885  0.62143403  0.30695478     0.07680
C569        C  0.17905278  0.63321061  0.30302937    -0.02110
C570        C  0.19882712  0.67135224  0.31673621    -0.02120
C571        C  0.17204231  0.70287181  0.33096739     0.07810
C572        C  0.12883510  0.68634080  0.33628637    -0.02310
Br573      Br  0.08304760  0.72571444  0.35039899    -0.00860
Br574      Br  0.06896171  0.60622005  0.34380136    -0.00930
Br575      Br  0.26212279  0.67715260  0.31715572    -0.00890
Br576      Br  0.21350486  0.59579887  0.28072053    -0.00880
C577        C  0.78841837  0.67372157  0.31739413    -0.02000
C578        C  0.80362385  0.72222747  0.31721003     0.07680
C579        C  0.83670423  0.73576418  0.30101288    -0.02110
C580        C  0.85733719  0.70038854  0.28691307    -0.02120
C581        C  0.84654242  0.65079150  0.28950487     0.07810
C582        C  0.80972658  0.63793972  0.30334782    -0.02310
Br583      Br  0.78749991  0.57252440  0.30242685    -0.00860
Br584      Br  0.73892598  0.65662820  0.33697932    -0.00930
Br585      Br  0.89842807  0.72052609  0.26267832    -0.00890
Br586      Br  0.85371880  0.80312185  0.29760662    -0.00880
C587        C  0.82248785  0.39457789  0.30767340    -0.02000
C588        C  0.84814238  0.38693736  0.28713493     0.07680
C589        C  0.85270971  0.33933438  0.27763662    -0.02110
C590        C  0.83439733  0.29950751  0.28953587    -0.02120
C591        C  0.81024261  0.30715594  0.31053769     0.07810
C592        C  0.80257170  0.35479054  0.31902140    -0.02310
Br593      Br  0.76638933  0.36504806  0.34681155    -0.00860
Br594      Br  0.81910229  0.45833625  0.32190430    -0.00930
Br595      Br  0.84522367  0.23402661  0.27821973    -0.00890
Br596      Br  0.88686444  0.32793102  0.24917914    -0.00880
C597        C  0.15980783  0.40931690  0.31124881    -0.02000
C598        C  0.13406494  0.39663519  0.29115929     0.07680
C599        C  0.12873828  0.34753639  0.28436485    -0.02110
C600        C  0.14565939  0.31095944  0.29872361    -0.02120
C601        C  0.16979481  0.32317083  0.31947005     0.07810
C602        C  0.17820820  0.37240019  0.32531154    -0.02310
Br603      Br  0.21340857  0.38886030  0.35289537    -0.00860
Br604      Br  0.16726461  0.47682324  0.32013263    -0.00930
Br605      Br  0.13281595  0.24402369  0.29063639    -0.00890
Br606      Br  0.09572456  0.33037690  0.25585933    -0.00880
C607        C  0.28682903  0.17731445  0.16612080    -0.02000
C608        C  0.30639334  0.22407845  0.16580313     0.07680
C609        C  0.33813252  0.23668429  0.18317177    -0.02110
C610        C  0.35122135  0.20256982  0.19993079    -0.02120
C611        C  0.33728447  0.15381828  0.19779246     0.07810
C612        C  0.30271536  0.14190519  0.18199895    -0.02310
Br613      Br  0.27630020  0.07843700  0.18292352    -0.00860
Br614      Br  0.23972148  0.16146680  0.14429139    -0.00930
Br615      Br  0.38734616  0.22290416  0.22662297    -0.00890
Br616      Br  0.36518572  0.30022778  0.18402719    -0.00880
C617        C  0.63024680  0.89883012  0.31850085    -0.02000
C618        C  0.63202659  0.90659744  0.29362264     0.07680
C619        C  0.66852016  0.88942230  0.28061235    -0.02110
C620        C  0.70406453  0.86798081  0.29242887    -0.02120
C621        C  0.70198693  0.85945400  0.31716808     0.07810
C622        C  0.66418857  0.87345330  0.32995468    -0.02310
Br623      Br  0.65701891  0.85449535  0.36268882    -0.00860
Br624      Br  0.58278726  0.92477398  0.33745251    -0.00930
Br625      Br  0.75569992  0.85099641  0.27436175    -0.00890
Br626      Br  0.66868354  0.89102275  0.24625775    -0.00880
C627        C  0.66550239  0.19913507  0.31654148    -0.02000
C628        C  0.70246274  0.17286691  0.32456672     0.07680
C629        C  0.70186361  0.12131098  0.32206458    -0.02110
C630        C  0.66681229  0.09771955  0.31011926    -0.02120
C631        C  0.63358871  0.12495800  0.29923585     0.07810
C632        C  0.63284574  0.17583394  0.30266637    -0.02310
Br633      Br  0.58951009  0.21473811  0.28668083    -0.00860
Br634      Br  0.65783698  0.26674909  0.32557017    -0.00930
Br635      Br  0.66362655  0.02755784  0.30930473    -0.00890
Br636      Br  0.74834153  0.08079010  0.33380335    -0.00880
C637        C  0.25749157  0.15153905  0.30460401    -0.02000
C638        C  0.26797270  0.18297214  0.32368885     0.07680
C639        C  0.31159227  0.18823165  0.33140212    -0.02110
C640        C  0.34518255  0.16166577  0.32005884    -0.02120
C641        C  0.33547893  0.13220655  0.29948534     0.07810
C642        C  0.29094069  0.12868658  0.29156673    -0.02310
Br643      Br  0.27345822  0.09663635  0.26194025    -0.00860
Br644      Br  0.19663813  0.13890483  0.29662370    -0.00930
Br645      Br  0.40321818  0.16588188  0.33417592    -0.00890
Br646      Br  0.32463046  0.23144680  0.35804510    -0.00880
C647        C  0.33646259  0.88924147  0.31734767    -0.02000
C648        C  0.33102121  0.90394221  0.29340792     0.07680
C649        C  0.29057777  0.89360440  0.28156541    -0.02110
C650        C  0.25667447  0.86877864  0.29345442    -0.02120
C651        C  0.26295876  0.85335897  0.31698156     0.07810
C652        C  0.30298400  0.86312264  0.32881392    -0.02310
Br653      Br  0.31224028  0.83986128  0.36084783    -0.00860
Br654      Br  0.38771536  0.90810837  0.33571160    -0.00930
Br655      Br  0.20077256  0.85716167  0.27786283    -0.00890
Br656      Br  0.28036608  0.91228554  0.24896089    -0.00880
C657        C  0.81152485  0.66387656  0.14981447    -0.02000
C658        C  0.77394892  0.67942684  0.16235197     0.07680
C659        C  0.76938338  0.66825855  0.18672097    -0.02110
C660        C  0.80353468  0.64495015  0.19885329    -0.02120
C661        C  0.84103523  0.62858822  0.18631088     0.07810
C662        C  0.84408259  0.63692434  0.16151219    -0.02310
Br663      Br  0.89085654  0.60863894  0.14286056    -0.00860
Br664      Br  0.81922625  0.68062376  0.11671491    -0.00930
Br665      Br  0.79886634  0.63836833  0.23295878    -0.00890
Br666      Br  0.71519823  0.68214173  0.20346272    -0.00880
C667        C  0.62191261  0.80558802  0.17097061    -0.02000
C668        C  0.66529195  0.81339635  0.16355578     0.07680
C669        C  0.68576326  0.85852350  0.16885884    -0.02110
C670        C  0.66218225  0.89566519  0.18100287    -0.02120
C671        C  0.61650475  0.89020224  0.18536273     0.07810
C672        C  0.59652027  0.84459420  0.17900097    -0.02310
Br673      Br  0.53406032  0.83231720  0.17859103    -0.00860
Br674      Br  0.59746881  0.74007916  0.17170176    -0.00930
Br675      Br  0.69291697  0.95394294  0.19039252    -0.00890
Br676      Br  0.74555256  0.87009852  0.15896103    -0.00880
C677        C  0.62986294  0.23057479  0.17317170    -0.02000
C678        C  0.66971089  0.21824845  0.16243225     0.07680
C679        C  0.68751593  0.17194030  0.16635569    -0.02110
C680        C  0.66357578  0.13742568  0.17979789    -0.02120
C681        C  0.61971396  0.14716753  0.18681003     0.07810
C682        C  0.60278585  0.19439789  0.18231808    -0.02310
Br683      Br  0.54214205  0.21260640  0.18607360    -0.00860
Br684      Br  0.61455834  0.29820691  0.17817465    -0.00930
Br685      Br  0.69088836  0.07723447  0.18756655    -0.00890
Br686      Br  0.74469890  0.15667184  0.15378263    -0.00880
C687        C  0.79958816  0.39846756  0.19893458    -0.02000
C688        C  0.83958255  0.40857937  0.18690813     0.07680
C689        C  0.84411799  0.39345607  0.16276543    -0.02110
C690        C  0.81021963  0.36694795  0.15134016    -0.02120
C691        C  0.77037300  0.35824890  0.16322303     0.07810
C692        C  0.76493758  0.37451913  0.18690322    -0.02310
Br693      Br  0.70961695  0.36405630  0.20292922    -0.00860
Br694      Br  0.79147914  0.41448793  0.23228026    -0.00930
Br695      Br  0.81926113  0.34013811  0.11974408    -0.00890
Br696      Br  0.89507243  0.41112338  0.14430169    -0.00880
C697        C  0.17566593  0.65360288  0.14876656    -0.02000
C698        C  0.20991544  0.67647041  0.16190468     0.07680
C699        C  0.20873004  0.67541377  0.18718609    -0.02110
C700        C  0.17270613  0.65481196  0.19897292    -0.02120
C701        C  0.14006504  0.62962671  0.18594139     0.07810
C702        C  0.14198922  0.62840077  0.16075565    -0.02310
Br703      Br  0.09987370  0.59052260  0.14252427    -0.00860
Br704      Br  0.17303875  0.65881914  0.11445635    -0.00930
Br705      Br  0.16632872  0.66475224  0.23299222    -0.00890
Br706      Br  0.25710466  0.69905424  0.20644309    -0.00880
C707        C  0.29947427  0.86437104  0.15491519    -0.02000
C708        C  0.31018423  0.81693998  0.16191590     0.07680
C709        C  0.33427942  0.80981217  0.18301595    -0.02110
C710        C  0.34500421  0.84953132  0.19784603    -0.02120
C711        C  0.33769439  0.89728656  0.19001136     0.07810
C712        C  0.31526157  0.90461234  0.16834704    -0.02310
Br713      Br  0.30997732  0.96908046  0.15603578    -0.00860
Br714      Br  0.26596479  0.87390443  0.12618231    -0.00930
Br715      Br  0.37329429  0.83849491  0.22819248    -0.00890
Br716      Br  0.35757373  0.74651246  0.19014249    -0.00880
C717        C  0.38675774  0.61125030  0.09426784    -0.02000
C718        C  0.39007013  0.62797173  0.07036416     0.07680
C719        C  0.36863854  0.67240557  0.06474026    -0.02110
C720        C  0.34193706  0.69639622  0.08174766    -0.02120
C721        C  0.33824708  0.67866101  0.10508756     0.07810
C722        C  0.36192103  0.63706533  0.11146326    -0.02310
Br723      Br  0.36141184  0.61640053  0.14434214    -0.00860
Br724      Br  0.41445361  0.55237551  0.10450762    -0.00930
Br725      Br  0.30893361  0.75323746  0.07282757    -0.00890
Br726      Br  0.37716918  0.70412405  0.03451568    -0.00880
C727        C  0.60743692  0.67601339  0.06702548    -0.02000
C728        C  0.59304845  0.62776769  0.07149372     0.07680
C729        C  0.60525856  0.60615153  0.09333320    -0.02110
C730        C  0.63100080  0.63244900  0.11016154    -0.02120
C731        C  0.64876191  0.67853903  0.10444970     0.07810
C732        C  0.63716592  0.69979351  0.08261802    -0.02310
Br733      Br  0.66369837  0.76071488  0.07325658    -0.00860
Br734      Br  0.58415463  0.71240154  0.04068087    -0.00930
Br735      Br  0.63961143  0.60592273  0.14159828    -0.00890
Br736      Br  0.58935096  0.53965070  0.10029444    -0.00880
C737        C  0.35089745  0.36513129  0.06215612    -0.02000
C738        C  0.38739184  0.39571713  0.06890237     0.07680
C739        C  0.39663183  0.40144100  0.09376875    -0.02110
C740        C  0.36828332  0.38132311  0.11093844    -0.02120
C741        C  0.33347092  0.35045048  0.10398803     0.07810
C742        C  0.32532819  0.34177587  0.07967339    -0.02310
Br743      Br  0.27752974  0.29845882  0.07062205    -0.00860
Br744      Br  0.33263034  0.35444253  0.02936229    -0.00930
Br745      Br  0.37587984  0.39801179  0.14425049    -0.00890
Br746      Br  0.44942735  0.43308431  0.10564175    -0.00880
C747        C  0.64331972  0.40787242  0.07073376    -0.02000
C748        C  0.59744203  0.40172564  0.06972704     0.07680
C749        C  0.57741366  0.36619317  0.08383280    -0.02110
C750        C  0.60205993  0.34125530  0.10110633    -0.02120
C751        C  0.64870319  0.34710257  0.10230109     0.07810
C752        C  0.66893376  0.37836003  0.08555847    -0.02310
Br753      Br  0.73161243  0.37733155  0.08034759    -0.00860
Br754      Br  0.67131388  0.45739712  0.05186494    -0.00930
Br755      Br  0.56922593  0.30133792  0.12280395    -0.00890
Br756      Br  0.51696418  0.34815493  0.07759878    -0.00880
C757        C  0.83283531  0.85184106  0.58668090    -0.02000
C758        C  0.84404668  0.86465789  0.61024000     0.07680
C759        C  0.87110838  0.90520639  0.61483410    -0.02110
C760        C  0.88767933  0.93289412  0.59595515    -0.02120
C761        C  0.88033278  0.91762555  0.57172958     0.07810
C762        C  0.85092512  0.87764523  0.56740295    -0.02310
Br763      Br  0.83269413  0.85715525  0.53567027    -0.00860
Br764      Br  0.79252605  0.79819428  0.58112330    -0.00930
Br765      Br  0.91699034  0.99364803  0.60486333    -0.00890
Br766      Br  0.88483912  0.92341166  0.64752632    -0.00880
C767        C  0.82417837  0.11861074  0.60094511    -0.02000
C768        C  0.82387102  0.16970907  0.60470297     0.07680
C769        C  0.84369292  0.20005940  0.58751289    -0.02110
C770        C  0.86922211  0.17945390  0.56914790    -0.02120
C771        C  0.87047129  0.12860160  0.56615864     0.07810
C772        C  0.84399615  0.09908611  0.58045483    -0.02970
Br773      Br  0.83030555  0.03360797  0.57014609    -0.00860
Br774      Br  0.80266811  0.07356606  0.62442663    -0.00930
Br775      Br  0.90313360  0.22084030  0.54853923    -0.00890
Br776      Br  0.83485313  0.26959270  0.58838361    -0.00880
C777        C  0.15102223  0.88229206  0.59063006    -0.02000
C778        C  0.13056294  0.87684900  0.61302257     0.07680
C779        C  0.08635734  0.89141056  0.61551383    -0.02110
C780        C  0.06286878  0.90826901  0.59559813    -0.02120
C781        C  0.08482615  0.91928144  0.57411627     0.07810
C782        C  0.12985245  0.90740251  0.57218228    -0.02310
Br783      Br  0.16426059  0.92664380  0.54504230    -0.00860
Br784      Br  0.20482664  0.84880388  0.58346827    -0.00930
Br785      Br  0.99983864  0.90848184  0.59697432    -0.00890
Br786      Br  0.05733528  0.88873471  0.64611181    -0.00880
C787        C  0.06661730  0.14071271  0.59484799    -0.02000
C788        C  0.08776002  0.13087199  0.57284788     0.07680
C789        C  0.13340482  0.14059891  0.57077777    -0.02110
C790        C  0.15698390  0.16081607  0.59014736    -0.02120
C791        C  0.13659588  0.16651139  0.61253790     0.07810
C792        C  0.09137977  0.15564232  0.61488931    -0.02310
Br793      Br  0.06333275  0.15770456  0.64582468    -0.00860
Br794      Br  0.00330134  0.13639074  0.59773261    -0.00930
Br795      Br  0.21705660  0.18227238  0.58560618    -0.00890
Br796      Br  0.16583147  0.12292604  0.54248034    -0.00880
C797        C  0.37656999  0.34918921  0.87181246    -0.02000
C798        C  0.33148564  0.34009727  0.87683172     0.07680
C799        C  0.31346350  0.36134751  0.89774031    -0.02110
C800        C  0.33906885  0.39255185  0.91249826    -0.02120
C801        C  0.38468559  0.39888439  0.90842500     0.07810
C802        C  0.40324090  0.37657707  0.88797344    -0.02310
Br803      Br  0.46583266  0.38086291  0.88261741    -0.00860
Br804      Br  0.40240965  0.32641191  0.84235476    -0.00930
Br805      Br  0.31009415  0.42906835  0.93750652    -0.00890
Br806      Br  0.25442795  0.34497354  0.90772025    -0.00880
C807        C  0.62454403  0.65467630  0.87284253    -0.02000
C808        C  0.66103514  0.68108130  0.88206505     0.07680
C809        C  0.67065523  0.67832138  0.90650136    -0.02110
C810        C  0.64609895  0.64737499  0.92133080    -0.02120
C811        C  0.60728086  0.62297367  0.91270729     0.07810
C812        C  0.59664827  0.62787193  0.88813694    -0.02310
Br813      Br  0.54301071  0.60074723  0.87486388    -0.00860
Br814      Br  0.61357073  0.65346230  0.83886205    -0.00930
Br815      Br  0.66998582  0.63752401  0.95289318    -0.00890
Br816      Br  0.71655541  0.71941835  0.92009228    -0.00880
C817        C  0.38766244  0.67498358  0.91344889    -0.02000
C818        C  0.38960949  0.62404066  0.91058043     0.07680
C819        C  0.35982132  0.60083749  0.89486438    -0.02110
C820        C  0.32877981  0.62828501  0.88187510    -0.02120
C821        C  0.32626064  0.67983863  0.88486915     0.07810
C822        C  0.35504739  0.70208905  0.90176053    -0.02310
Br823      Br  0.34603927  0.76825544  0.91215278    -0.00860
Br824      Br  0.43037182  0.70807767  0.93356662    -0.00930
Br825      Br  0.28964214  0.59272451  0.86106781    -0.00890
Br826      Br  0.36000212  0.53066957  0.89231111    -0.00880
C827        C  0.30118695  0.14637020  0.82753781    -0.02000
C828        C  0.30867154  0.19545590  0.82167130     0.07680
C829        C  0.33043467  0.20673068  0.80026461    -0.02110
C830        C  0.34631172  0.16944881  0.78544001    -0.02120
C831        C  0.34275050  0.12067654  0.79243005     0.07810
C832        C  0.31896717  0.10890940  0.81308942    -0.02310
Br833      Br  0.31231383  0.04178639  0.82175073    -0.00860
Br834      Br  0.26769135  0.13081703  0.85553227    -0.00930
Br835      Br  0.37465562  0.18505901  0.75567634    -0.00890
Br836      Br  0.33995073  0.27343834  0.79139443    -0.00880
C837        C  0.31191954  0.86698788  0.79312737    -0.02000
C838        C  0.34493606  0.89620262  0.80347676     0.07680
C839        C  0.35135100  0.89506096  0.82834903    -0.02110
C840        C  0.32868817  0.86067130  0.84204678    -0.02120
C841        C  0.30361607  0.82370338  0.83063009     0.07810
C842        C  0.29470796  0.82762741  0.80585990    -0.02310
Br843      Br  0.26329749  0.77751248  0.78816957    -0.00860
Br844      Br  0.28717009  0.88380283  0.76279880    -0.00930
Br845      Br  0.32980200  0.86684711  0.87623553    -0.00890
Br846      Br  0.38931729  0.94252311  0.84372519    -0.00880
C847        C  0.66620422  0.85665476  0.83520309    -0.02000
C848        C  0.68041449  0.81445440  0.82288519     0.07680
C849        C  0.67662912  0.81150551  0.79779798    -0.02110
C850        C  0.65723039  0.84973739  0.78533961    -0.02120
C851        C  0.63903200  0.88928774  0.79790579     0.07810
C852        C  0.64460496  0.89351337  0.82274036    -0.02310
Br853      Br  0.62140060  0.94937284  0.83953484    -0.00860
Br854      Br  0.67601322  0.86405774  0.86910727    -0.00930
Br855      Br  0.65303170  0.84664476  0.75110118    -0.00890
Br856      Br  0.69361012  0.75331034  0.78051738    -0.00880
C857        C  0.63619226  0.15662997  0.67699566    -0.02000
C858        C  0.64380599  0.11947912  0.69412955     0.07680
C859        C  0.68853369  0.10913882  0.70037291    -0.02110
C860        C  0.72339562  0.13097227  0.68797371    -0.02120
C861        C  0.71515967  0.16673903  0.67100889     0.07810
C862        C  0.67186438  0.18007846  0.66577233    -0.02310
Br863      Br  0.66204363  0.23148512  0.64322928    -0.00860
Br864      Br  0.57798871  0.17920293  0.66888364    -0.00930
Br865      Br  0.78343281  0.11060377  0.69352683    -0.00890
Br866      Br  0.70557456  0.06722724  0.72643193    -0.00880
C867        C  0.67891380  0.92903690  0.67921879    -0.02000
C868        C  0.64580533  0.89865206  0.68833555     0.07680
C869        C  0.65023472  0.84767292  0.68598912    -0.02110
C870        C  0.68906570  0.82775328  0.67629849    -0.02120
C871        C  0.72433804  0.85855844  0.66978453     0.07810
C872        C  0.71891858  0.90953465  0.67139697    -0.02310
Br873      Br  0.76678151  0.95381678  0.66464282    -0.00860
Br874      Br  0.66734957  0.99697230  0.67461721    -0.00930
Br875      Br  0.69304650  0.75832779  0.67126771    -0.00890
Br876      Br  0.60357684  0.80469856  0.69599878    -0.00880
C877        C  0.32088538  0.84959439  0.69855482    -0.02000
C878        C  0.34602117  0.88419035  0.68671292     0.07680
C879        C  0.33357048  0.89833762  0.66377160    -0.02110
C880        C  0.29500228  0.87880103  0.65316589    -0.02120
C881        C  0.26444607  0.85125781  0.66697984     0.07810
C882        C  0.27833132  0.83788043  0.69044027    -0.02310
Br883      Br  0.23991393  0.81081278  0.71425261    -0.00860
Br884      Br  0.34729994  0.81520593  0.72468556    -0.00930
Br885      Br  0.28875388  0.88719642  0.61934234    -0.00890
Br886      Br  0.36973884  0.94466908  0.64703740    -0.00880
C887        C  0.34230947  0.14866878  0.67761913    -0.02000
C888        C  0.33903521  0.10112533  0.68711090     0.07680
C889        C  0.29793083  0.07618108  0.68546544    -0.02110
C890        C  0.26034876  0.10011534  0.67710263    -0.02120
C891        C  0.26365379  0.14788978  0.66872046     0.07810
C892        C  0.30486955  0.17132191  0.66809781    -0.02310
Br893      Br  0.30982604  0.23474550  0.65383159    -0.00860
Br894      Br  0.39667525  0.18524623  0.67817249    -0.00930
Br895      Br  0.20356030  0.06814861  0.67835261    -0.00890
Br896      Br  0.29181847  0.00821763  0.69339998    -0.00880
C897        C  0.64621649  0.38535044  0.87367736    -0.02000
C898        C  0.66681720  0.34260054  0.88177412     0.07680
C899        C  0.65667209  0.32596135  0.90473510    -0.02110
C900        C  0.62518916  0.35008053  0.91899823    -0.02120
C901        C  0.60594018  0.39469418  0.91162332     0.07810
C902        C  0.61713682  0.41198662  0.88866097    -0.02310
Br903      Br  0.59416972  0.47277168  0.87742335    -0.00860
Br904      Br  0.65613043  0.40653950  0.84149344    -0.00930
Br905      Br  0.60665694  0.31769953  0.94770660    -0.00890
Br906      Br  0.68713312  0.26997331  0.91698301    -0.00880
C907        C  0.62999371  0.20645593  0.82063601    -0.02000
C908        C  0.67361194  0.19816824  0.82766098     0.07680
C909        C  0.69261185  0.15217465  0.82270943    -0.02110
C910        C  0.66826526  0.11589700  0.81006693    -0.02120
C911        C  0.62334804  0.12335559  0.80484845     0.07810
C912        C  0.60391050  0.16790581  0.81235294    -0.02310
Br913      Br  0.54141171  0.17803106  0.81447876    -0.00860
Br914      Br  0.60601007  0.27173378  0.81986822    -0.00930
Br915      Br  0.69535685  0.05461579  0.80207270    -0.00890
Br916      Br  0.75103326  0.13785483  0.83393079    -0.00880
C917        C  0.11398659  0.32551881  0.82536992    -0.02000
C918        C  0.11687353  0.35249823  0.80427287     0.07680
C919        C  0.15832343  0.36030356  0.79371706    -0.02110
C920        C  0.19675174  0.34449539  0.80501063    -0.02120
C921        C  0.19409389  0.31848831  0.82638829     0.07810
C922        C  0.15252781  0.30756561  0.83615036    -0.02310
Br923      Br  0.14876197  0.26961266  0.86470922    -0.00860
Br924      Br  0.05755482  0.31551613  0.83993706    -0.00930
Br925      Br  0.25326255  0.36057276  0.79167270    -0.00890
Br926      Br  0.16274599  0.39542931  0.76423611    -0.00880
C927        C  0.18783461  0.66365491  0.83007073    -0.02000
C928        C  0.18286165  0.70820895  0.84184130     0.07680
C929        C  0.14114124  0.73090608  0.84085161    -0.02110
C930        C  0.10548182  0.70691021  0.82886992    -0.02120
C931        C  0.10997966  0.65778910  0.82132190     0.07810
C932        C  0.15134822  0.63556252  0.82460170    -0.02310
Br933      Br  0.16077319  0.56693077  0.82715306    -0.00860
Br934      Br  0.24257512  0.64659701  0.81505521    -0.00930
Br935      Br  0.05031872  0.73954680  0.82466110    -0.00890
Br936      Br  0.13301675  0.79420910  0.85514918    -0.00880
C937        C  0.87842339  0.71101380  0.82044551    -0.02000
C938        C  0.88556746  0.66048556  0.82243476     0.07680
C939        C  0.85571327  0.63408949  0.83684997    -0.02110
C940        C  0.81350213  0.65145950  0.84065006    -0.02120
C941        C  0.80548593  0.70180640  0.83928831     0.07810
C942        C  0.84057888  0.73213564  0.83116834    -0.02310
Br943      Br  0.83932796  0.80177841  0.83597705    -0.00860
Br944      Br  0.92001329  0.75176909  0.80411007    -0.00930
Br945      Br  0.76739783  0.60274188  0.84268025    -0.00890
Br946      Br  0.87191372  0.57590589  0.85372226    -0.00880
C947        C  0.79061682  0.34589725  0.80546558    -0.02000
C948        C  0.79590638  0.31722502  0.82581607     0.07680
C949        C  0.83835402  0.30216282  0.83259124    -0.02110
C950        C  0.87566255  0.31952728  0.82031221    -0.02120
C951        C  0.87041388  0.35139758  0.80109904     0.07810
C952        C  0.82764398  0.36291460  0.79320661    -0.02310
Br953      Br  0.81980281  0.40494655  0.76628404    -0.00860
Br954      Br  0.73246009  0.36224845  0.79445525    -0.00930
Br955      Br  0.93380441  0.30233962  0.83059942    -0.00890
Br956      Br  0.84516514  0.25870719  0.85898872    -0.00880
C957        C  0.84515238  0.70294073  0.67604381    -0.02000
C958        C  0.85673952  0.75201799  0.67910816     0.07680
C959        C  0.89148359  0.76511078  0.69450569    -0.02110
C960        C  0.91468623  0.72914591  0.70706572    -0.02120
C961        C  0.90174325  0.67928195  0.70524130     0.07810
C962        C  0.86643466  0.66681323  0.68928921    -0.02310
Br963      Br  0.84397059  0.60122124  0.68512894    -0.00860
Br964      Br  0.79993116  0.68548938  0.65300650    -0.00930
Br965      Br  0.96564343  0.74990261  0.72531319    -0.00890
Br966      Br  0.90697219  0.83297017  0.69830395    -0.00880
C967        C  0.09843864  0.72439242  0.71202628    -0.02000
C968        C  0.08483865  0.67881470  0.70243718     0.07680
C969        C  0.09157252  0.66935894  0.67770985    -0.02110
C970        C  0.11640910  0.70168417  0.66378767    -0.02120
C971        C  0.13067136  0.74624775  0.67360988     0.07810
C972        C  0.11871525  0.75887536  0.69720070    -0.02310
Br973      Br  0.12635754  0.82501691  0.70852170    -0.00860
Br974      Br  0.09200123  0.73983459  0.74556534    -0.00930
Br975      Br  0.13069325  0.68526798  0.63111663    -0.00890
Br976      Br  0.06326742  0.61512617  0.66175281    -0.00880
C977        C  0.13100126  0.36267534  0.68689388    -0.02000
C978        C  0.10643638  0.35130822  0.70772955     0.07680
C979        C  0.10768758  0.30291078  0.71634477    -0.02110
C980        C  0.12958938  0.26635840  0.70333082    -0.02120
C981        C  0.15250740  0.27793691  0.68243071     0.07810
C982        C  0.15437315  0.32613092  0.67466109    -0.02310
Br983      Br  0.18897684  0.34148494  0.64681996    -0.00860
Br984      Br  0.13192907  0.42692483  0.67338900    -0.00930
Br985      Br  0.12637615  0.19944557  0.71342035    -0.00890
Br986      Br  0.08162536  0.28520516  0.74644146    -0.00880
C987        C  0.91337550  0.30601466  0.69484281    -0.02000
C988        C  0.89355541  0.35083564  0.70132213     0.07680
C989        C  0.84944177  0.35928945  0.69423382    -0.02110
C990        C  0.82590018  0.32376127  0.68113487    -0.02120
C991        C  0.84486153  0.27823037  0.67613401     0.07810
C992        C  0.88863593  0.26937180  0.68305891    -0.02310
Br993      Br  0.91452964  0.20634567  0.67715328    -0.00860
Br994      Br  0.97531847  0.29507470  0.70021533    -0.00930
Br995      Br  0.76787643  0.33857001  0.66901876    -0.00890
Br996      Br  0.81898940  0.41831783  0.70274097    -0.00880
loop_ 
_geom_bond_atom_site_label_1 
_geom_bond_atom_site_label_2 
_geom_bond_distance 
_geom_bond_site_symmetry_2 
_ccdc_geom_bond_type 
O1          Zr13   2.390       .  S
O1            C3   1.278       .  A
O2          Zr39   2.467       .  S
O2            C3   1.294       .  A
C3          C951   1.476       .  S
O4          Zr16   2.440       .  S
O4            C6   1.285       .  A
O5          Zr40   2.452       .  S
O5            C6   1.292       .  A
C6          C961   1.513       .  S
O7          Zr16   2.447       .  S
O7            C9   1.289       .  A
O8          Zr39   2.428       .  S
O8            C9   1.288       .  A
C9          C988   1.494       .  S
O10         Zr13   2.377       .  S
O10          C12   1.273       .  A
O11         Zr40   2.487       .  S
O11          C12   1.296       .  A
C12         C938   1.508       .  S
Zr13         O14   2.434       .  S
Zr13         O15   2.436       .  S
Zr13         O19   2.354       .  S
Zr13         O20   2.369       .  S
Zr13         O43   2.352       .  S
Zr13         O45   2.356       .  S
O14          H57   0.990       .  S
O15          H56   0.989       .  S
O15          H60   0.990       .  S
Zr16         O17   2.436       .  S
Zr16         O18   2.435       .  S
Zr16         O20   2.371       .  S
Zr16         O19   2.362       .  S
Zr16         O44   2.368       .  S
Zr16         O46   2.361       .  S
O17          H58   0.990       .  S
O17          H61   0.988       .  S
O18          H51   0.990       .  S
O19         Zr39   2.377       .  S
O20         Zr40   2.394       .  S
O20          H47   0.965       .  S
O21         Zr33   2.411       .  S
O21          C23   1.278       .  A
O22         Zr40   2.487   1_455  S
O22          C23   1.298       .  A
C23         C931   1.495       .  S
O24         Zr36   2.446       .  S
O24          C26   1.288       .  A
O25         Zr39   2.428   1_455  S
O25          C26   1.287       .  A
C26         C978   1.498       .  S
O27         Zr36   2.436       .  S
O27          C29   1.288       .  A
O28         Zr40   2.456   1_455  S
O28          C29   1.294       .  A
C29         C968   1.498       .  S
O30         Zr33   2.398       .  S
O30          C32   1.280       .  A
O31         Zr39   2.467   1_455  S
O31          C32   1.294       .  A
C32         C918   1.474       .  S
Zr33         O34   2.444       .  S
Zr33         O35   2.435       .  S
Zr33         O41   2.367       .  S
Zr33         O42   2.342       .  S
Zr33         O45   2.372   1_455  S
Zr33         O43   2.363   1_455  S
O34          H54   0.988       .  S
O34          H59   0.989       .  S
O35          H55   0.990       .  S
Zr36         O37   2.437       .  S
Zr36         O38   2.431       .  S
Zr36         O42   2.357       .  S
Zr36         O41   2.379       .  S
Zr36         O46   2.363   1_455  S
Zr36         O44   2.364   1_455  S
O37          H53   0.990       .  S
O38          H52   0.989       .  S
O38          H62   0.989       .  S
Zr39         O42   2.374   1_655  S
Zr39         O44   2.400       .  S
Zr39         O45   2.382       .  S
Zr40         O41   2.395   1_655  S
Zr40         O43   2.389       .  S
Zr40         O46   2.399       .  S
O41          H49   0.965       .  S
O44          H48   0.966       .  S
O45          H50   0.966       .  S
C63         C948   1.480       .  S
C63          C64   1.414       .  A
C63          C68   1.398       .  A
C64          C65   1.412       .  A
C64          H69   1.083       .  S
C65         C898   1.505       .  S
C65          C66   1.406       .  A
C66          C67   1.410       .  A
C66          H70   1.084       .  S
C67         C908   1.490       .  S
C67          C68   1.396       .  A
C68          H71   1.084       .  S
O72         Zr84   2.403       .  S
O72          C74   1.275       .  A
O73        Zr110   2.479       .  S
O73          C74   1.295       .  A
C74         C911   1.496       .  S
O75         Zr87   2.430       .  S
O75          C77   1.286       .  A
O76        Zr111   2.432       .  S
O76          C77   1.287       .  A
C77         C838   1.477       .  S
O78         Zr87   2.428       .  S
O78          C80   1.285       .  A
O79        Zr110   2.423   1_565  S
O79          C80   1.286       .  A
C80         C851   1.465       .  S
O81         Zr84   2.402       .  S
O81          C83   1.280       .  A
O82        Zr111   2.447   1_545  S
O82          C83   1.289       .  A
C83         C831   1.468       .  S
Zr84         O85   2.434       .  S
Zr84         O86   2.441       .  S
Zr84         O90   2.365       .  S
Zr84         O91   2.349   1_545  S
Zr84        O114   2.358       .  S
Zr84        O116   2.362       .  S
O85         H128   0.990       .  S
O86         H127   0.987       .  S
O86         H131   0.989       .  S
Zr87         O88   2.434       .  S
Zr87         O89   2.435       .  S
Zr87         O91   2.371       .  S
Zr87         O90   2.364   1_565  S
Zr87        O115   2.366       .  S
Zr87        O117   2.370       .  S
O88         H129   0.990       .  S
O88         H132   0.990       .  S
O89         H122   0.990       .  S
O90        Zr110   2.373       .  S
O91        Zr111   2.374       .  S
O91         H118   0.965   1_565  S
O92        Zr104   2.468       .  S
O92          C94   1.292       .  A
O93        Zr111   2.409   1_545  S
O93          C94   1.284       .  A
C94         C888   1.499       .  S
O95        Zr107   2.445       .  S
O95          C97   1.288       .  A
O96        Zr110   2.436   1_565  S
O96          C97   1.291       .  A
C97         C868   1.486       .  S
O98        Zr107   2.449       .  S
O98         C100   1.288       .  A
O99        Zr111   2.426       .  S
O99         C100   1.288       .  A
C100        C878   1.475       .  S
O101       Zr104   2.466       .  S
O101        C103   1.290       .  A
O102       Zr110   2.405       .  S
O102        C103   1.280       .  A
C103        C858   1.514       .  S
Zr104       O105   2.435       .  S
Zr104       O106   2.433       .  S
Zr104       O112   2.374   1_545  S
Zr104       O113   2.369       .  S
Zr104       O116   2.377       .  S
Zr104       O114   2.376       .  S
O105        H125   0.990       .  S
O105        H130   0.990       .  S
O106        H126   0.989       .  S
Zr107       O108   2.434       .  S
Zr107       O109   2.434       .  S
Zr107       O113   2.378   1_565  S
Zr107       O112   2.368       .  S
Zr107       O117   2.379       .  S
Zr107       O115   2.371       .  S
O108        H124   0.990       .  S
O109        H123   0.990       .  S
O109        H133   0.990       .  S
Zr110       O113   2.392       .  S
Zr110       O115   2.389   1_545  S
Zr110       O116   2.376       .  S
Zr111       O112   2.395       .  S
Zr111       O114   2.373   1_565  S
Zr111       O117   2.386       .  S
O112        H120   0.966       .  S
O115        H119   0.966       .  S
O116        H121   0.965       .  S
C134        C928   1.490       .  S
C134        C135   1.392       .  A
C134        C139   1.421       .  A
C135        C136   1.398       .  A
C135        H140   1.083       .  S
C136        C841   1.490       .  S
C136        C137   1.414       .  A
C137        C138   1.416       .  A
C137        H141   1.083       .  S
C138        C821   1.522       .  S
C138        C139   1.415       .  A
C139        H142   1.082       .  S
C143        C941   1.507       .  S
C143        C144   1.402       .  A
C143        C148   1.416       .  A
C144        C145   1.401       .  A
C144        H149   1.081       .  S
C145        C848   1.478       .  S
C145        C146   1.403       .  A
C146        C147   1.400       .  A
C146        H150   1.084       .  S
C147        C808   1.499       .  S
C147        C148   1.409       .  A
C148        H151   1.081       .  S
C152        C921   1.481       .  S
C152        C153   1.409       .  A
C152        C157   1.394       .  A
C153        C154   1.416       .  A
C153        H158   1.083       .  S
C154        C798   1.513       .  S
C154        C155   1.415       .  A
C155        C156   1.410       .  A
C155        H159   1.083       .  S
C156        C828   1.480       .  S
C156        C157   1.395       .  A
C157        H160   1.085       .  S
C161        C891   1.480       .  S
C161        C162   1.402       .  A
C161        C166   1.403       .  A
C162        C163   1.400       .  A
C162        H167   1.084       .  S
C163        C981   1.473       .  S
C163        C164   1.398       .  A
C164        C165   1.400       .  A
C164        H168   1.084       .  S
C165        C791   1.483       .  S
C165        C166   1.405       .  A
C166        H169   1.084       .  S
C170        C778   1.496       .  S
C170        C171   1.400       .  A
C170        C175   1.417       .  A
C171        C172   1.393       .  A
C171        H176   1.084       .  S
C172        C971   1.484       .  S
C172        C173   1.401       .  A
C173        C174   1.413       .  A
C173        H177   1.079       .  S
C174        C881   1.525       .  S
C174        C175   1.422       .  A
C175        H178   1.080       .  S
C179        C861   1.477       .  S
C179        C180   1.401       .  A
C179        C184   1.401       .  A
C180        C181   1.401       .  A
C180        H185   1.084       .  S
C181        C991   1.482       .  S
C181        C182   1.399       .  A
C182        C183   1.405       .  A
C182        H186   1.083       .  S
C183        C768   1.487       .  S
C183        C184   1.405       .  A
C184        H187   1.083       .  S
C188        C758   1.477       .  S
C188        C189   1.402       .  A
C188        C193   1.399       .  A
C189        C190   1.403       .  A
C189        H194   1.084       .  S
C190        C958   1.482       .  S
C190        C191   1.406       .  A
C191        C192   1.408       .  A
C191        H195   1.084       .  S
C192        C871   1.490       .  S
C192        C193   1.403       .  A
C193        H196   1.084       .  S
O197       Zr209   2.419       .  S
O197        C199   1.281       .  A
O198       Zr235   2.486       .  S
O198        C199   1.298       .  A
C199        C811   1.519       .  S
O200       Zr212   2.425   1_554  S
O200        C202   1.284       .  A
O201       Zr236   2.453       .  S
O201        C202   1.293       .  A
C202        C748   1.479       .  S
O203       Zr212   2.423       .  S
O203        C205   1.283       .  A
O204       Zr235   2.493       .  S
O204        C205   1.300       .  A
C205        C901   1.519       .  S
O206       Zr209   2.434   1_554  S
O206        C208   1.287       .  A
O207       Zr236   2.448       .  S
O207        C208   1.291       .  A
C208        C728   1.499       .  S
Zr209       O210   2.432       .  S
Zr209       O211   2.435       .  S
Zr209       O215   2.368       .  S
Zr209       O216   2.358   1_556  S
Zr209       O239   2.364   1_556  S
Zr209       O241   2.370       .  S
O210        H253   0.990       .  S
O211        H252   0.990       .  S
O211        H256   0.990       .  S
Zr212       O213   2.435       .  S
Zr212       O214   2.435       .  S
Zr212       O216   2.368   1_556  S
Zr212       O215   2.368       .  S
Zr212       O240   2.369       .  S
Zr212       O242   2.365   1_556  S
O213        H254   0.989       .  S
O213        H257   0.990       .  S
O214        H247   0.989       .  S
O215       Zr235   2.390       .  S
O216       Zr236   2.387       .  S
O216        H243   0.966       .  S
O217       Zr229   2.453   1_554  S
O217        C219   1.289       .  A
O218       Zr236   2.448       .  S
O218        C219   1.290       .  A
C219        C718   1.517       .  S
O220       Zr232   2.437       .  S
O220        C222   1.288       .  A
O221       Zr235   2.475       .  S
O221        C222   1.297       .  A
C222        C801   1.505       .  S
O223       Zr232   2.446   1_554  S
O223        C225   1.286       .  A
O224       Zr236   2.450       .  S
O224        C225   1.291       .  A
C225        C738   1.517       .  S
O226       Zr229   2.419       .  S
O226        C228   1.285       .  A
O227       Zr235   2.480       .  S
O227        C228   1.298       .  A
C228        C818   1.492       .  S
Zr229       O230   2.436       .  S
Zr229       O231   2.433       .  S
Zr229       O237   2.364   1_556  S
Zr229       O238   2.376       .  S
Zr229       O241   2.375       .  S
Zr229       O239   2.361   1_556  S
O230        H250   0.990   1_556  S
O230        H255   0.990       .  S
O231        H251   0.990   1_556  S
Zr232       O233   2.432       .  S
Zr232       O234   2.435       .  S
Zr232       O238   2.370       .  S
Zr232       O237   2.371   1_556  S
Zr232       O242   2.365   1_556  S
Zr232       O240   2.375       .  S
O233        H249   0.990       .  S
O234        H248   0.990   1_556  S
O234        H258   0.990       .  S
Zr235       O238   2.400       .  S
Zr235       O240   2.398       .  S
Zr235       O241   2.401       .  S
Zr236       O237   2.388       .  S
Zr236       O239   2.381       .  S
Zr236       O242   2.390       .  S
O237        H245   0.966       .  S
O240        H244   0.966       .  S
O241        H246   0.966       .  S
C259        C721   1.491       .  S
C259        C260   1.406       .  A
C259        C264   1.409       .  A
C260        C261   1.403       .  A
C260        H265   1.084       .  S
C261        C708   1.475       .  S
C261        C262   1.397       .  A
C262        C263   1.401       .  A
C262        H266   1.084       .  S
C263        C698   1.492       .  S
C263        C264   1.409       .  A
C264        H267   1.083       .  S
C268        C691   1.477       .  S
C268        C269   1.405       .  A
C268        C273   1.396       .  A
C269        C270   1.412       .  A
C269        H274   1.083       .  S
C270        C751   1.512       .  S
C270        C271   1.411       .  A
C271        C272   1.412       .  A
C271        H275   1.081       .  S
C272        C678   1.479       .  S
C272        C273   1.394       .  A
C273        H276   1.084       .  S
C277        C658   1.481       .  S
C277        C278   1.404       .  A
C277        C282   1.405       .  A
C278        C279   1.402       .  A
C278        H283   1.084       .  S
C279        C731   1.493       .  S
C279        C280   1.404       .  A
C280        C281   1.408       .  A
C280        H284   1.084       .  S
C281        C668   1.489       .  S
C281        C282   1.399       .  A
C282        H285   1.084       .  S
O286       Zr298   2.391       .  S
O286        C288   1.278       .  A
O287       Zr324   2.458   1_565  S
O287        C288   1.291       .  A
C288        C711   1.468       .  S
O289       Zr301   2.448       .  S
O289        C291   1.289       .  A
O290       Zr325   2.427   1_565  S
O290        C291   1.289       .  A
C291        C618   1.486       .  S
O292       Zr301   2.464       .  S
O292        C294   1.293       .  A
O293       Zr324   2.409   1_565  S
O293        C294   1.284       .  A
C294        C648   1.490       .  S
O295       Zr298   2.404       .  S
O295        C297   1.277       .  A
O296       Zr325   2.493   1_565  S
O296        C297   1.299       .  A
C297        C671   1.511       .  S
Zr298       O299   2.430       .  S
Zr298       O300   2.435       .  S
Zr298       O304   2.355       .  S
Zr298       O305   2.362       .  S
Zr298       O328   2.356   1_565  S
Zr298       O330   2.360   1_565  S
O299        H342   0.988       .  S
O300        H341   0.990       .  S
O300        H345   0.990       .  S
Zr301       O302   2.436       .  S
Zr301       O303   2.433       .  S
Zr301       O305   2.379       .  S
Zr301       O304   2.367       .  S
Zr301       O329   2.366   1_565  S
Zr301       O331   2.370   1_565  S
O302        H343   0.990       .  S
O302        H346   0.990       .  S
O303        H336   0.989       .  S
O304       Zr324   2.370   1_565  S
O305       Zr325   2.389   1_565  S
O305        H332   0.966       .  S
O306       Zr318   2.405       .  S
O306        C308   1.278       .  A
O307       Zr325   2.486       .  S
O307        C308   1.298       .  A
C308        C681   1.501       .  S
O309       Zr321   2.446       .  S
O309        C311   1.286       .  A
O310       Zr324   2.409       .  S
O310        C311   1.281       .  A
C311        C641   1.499       .  S
O312       Zr321   2.430       .  S
O312        C314   1.286       .  A
O313       Zr325   2.441       .  S
O313        C314   1.292       .  A
C314        C631   1.479       .  S
O315       Zr318   2.404       .  S
O315        C317   1.282       .  A
O316       Zr324   2.454       .  S
O316        C317   1.290       .  A
C317        C611   1.480       .  S
Zr318       O319   2.443       .  S
Zr318       O320   2.433       .  S
Zr318       O326   2.357       .  S
Zr318       O327   2.349       .  S
Zr318       O330   2.362       .  S
Zr318       O328   2.365       .  S
O319        H339   0.987       .  S
O319        H344   0.988       .  S
O320        H340   0.990       .  S
Zr321       O322   2.439       .  S
Zr321       O323   2.434       .  S
Zr321       O327   2.366       .  S
Zr321       O326   2.376       .  S
Zr321       O331   2.369       .  S
Zr321       O329   2.366       .  S
O322        H338   0.989       .  S
O323        H337   0.990       .  S
O323        H347   0.990       .  S
Zr324       O327   2.374       .  S
Zr324       O329   2.400       .  S
Zr324       O330   2.380       .  S
Zr325       O326   2.386       .  S
Zr325       O328   2.379       .  S
Zr325       O331   2.403       .  S
O326        H334   0.964       .  S
O329        H333   0.966       .  S
O330        H335   0.966       .  S
O348       Zr360   2.440   1_455  S
O348        C350   1.287       .  A
O349       Zr386   2.429       .  S
O349        C350   1.289       .  A
C350        C701   1.478       .  S
O351       Zr363   2.415       .  S
O351        C353   1.284       .  A
O352       Zr387   2.451       .  S
O352        C353   1.291       .  A
C353        C581   1.482       .  S
O354       Zr363   2.413   1_455  S
O354        C356   1.285       .  A
O355       Zr386   2.463       .  S
O355        C356   1.291       .  A
C356        C568   1.497       .  S
O357       Zr360   2.448       .  S
O357        C359   1.290       .  A
O358       Zr387   2.421       .  S
O358        C359   1.286       .  A
C359        C661   1.485       .  S
Zr360       O361   2.435       .  S
Zr360       O362   2.432       .  S
Zr360       O366   2.380   1_655  S
Zr360       O367   2.362       .  S
Zr360       O390   2.369       .  S
Zr360       O392   2.367   1_655  S
O361        H404   0.990   1_655  S
O362        H403   0.989   1_655  S
O362        H407   0.990   1_655  S
Zr363       O364   2.433   1_655  S
Zr363       O365   2.430       .  S
Zr363       O367   2.360       .  S
Zr363       O366   2.367   1_655  S
Zr363       O391   2.364   1_655  S
Zr363       O393   2.374       .  S
O364        H405   0.989   1_455  S
O364        H408   0.990   1_455  S
O365        H398   0.990       .  S
O366       Zr386   2.388       .  S
O367       Zr387   2.388       .  S
O367        H394   0.965       .  S
O368       Zr380   2.460       .  S
O368        C370   1.292       .  A
O369       Zr387   2.411       .  S
O369        C370   1.284       .  A
C370        C688   1.490       .  S
O371       Zr383   2.405   1_455  S
O371        C373   1.281       .  A
O372       Zr386   2.436       .  S
O372        C373   1.287       .  A
C373        C598   1.465       .  S
O374       Zr383   2.402       .  S
O374        C376   1.280       .  A
O375       Zr387   2.464       .  S
O375        C376   1.293       .  A
C376        C588   1.473       .  S
O377       Zr380   2.446   1_455  S
O377        C379   1.289       .  A
O378       Zr386   2.421       .  S
O378        C379   1.286       .  A
C379        C558   1.485       .  S
Zr380       O381   2.435       .  S
Zr380       O382   2.431       .  S
Zr380       O388   2.357       .  S
Zr380       O389   2.376   1_655  S
Zr380       O392   2.366   1_655  S
Zr380       O390   2.369       .  S
O381        H401   0.990       .  S
O381        H406   0.990       .  S
O382        H402   0.990       .  S
Zr383       O384   2.434       .  S
Zr383       O385   2.434       .  S
Zr383       O389   2.370   1_655  S
Zr383       O388   2.361       .  S
Zr383       O393   2.367       .  S
Zr383       O391   2.347   1_655  S
O384        H400   0.990       .  S
O385        H399   0.990       .  S
O385        H409   0.990       .  S
Zr386       O389   2.389       .  S
Zr386       O391   2.385       .  S
Zr386       O392   2.396       .  S
Zr387       O388   2.382       .  S
Zr387       O390   2.391       .  S
Zr387       O393   2.380       .  S
O388        H396   0.962       .  S
O391        H395   0.965       .  S
O392        H397   0.966       .  S
C410        C741   1.485       .  S
C410        C411   1.408       .  A
C410        C415   1.404       .  A
C411        C412   1.408       .  A
C411        H416   1.084       .  S
C412        C608   1.480       .  S
C412        C413   1.396       .  A
C413        C414   1.400       .  A
C413        H417   1.085       .  S
C414        C561   1.480       .  S
C414        C415   1.404       .  A
C415        H418   1.084       .  S
C419        C551   1.491       .  S
C419        C420   1.404       .  A
C419        C424   1.410       .  A
C420        C421   1.395       .  A
C420        H425   1.084       .  S
C421        C638   1.470       .  S
C421        C422   1.396       .  A
C422        C423   1.398       .  A
C422        H426   1.085       .  S
C423        C601   1.476       .  S
C423        C424   1.408       .  A
C424        H427   1.083       .  S
C428        C628   1.500       .  S
C428        C429   1.409       .  A
C428        C433   1.409       .  A
C429        C430   1.397       .  A
C429        H434   1.084       .  S
C430        C591   1.473       .  S
C430        C431   1.398       .  A
C431        C432   1.399       .  A
C431        H435   1.084       .  S
C432        C538   1.481       .  S
C432        C433   1.407       .  A
C433        H436   1.081       .  S
C437        C571   1.509       .  S
C437        C438   1.411       .  A
C437        C442   1.414       .  A
C438        C439   1.402       .  A
C438        H443   1.081       .  S
C439        C651   1.475       .  S
C439        C440   1.395       .  A
C440        C441   1.394       .  A
C440        H444   1.084       .  S
C441        C531   1.479       .  S
C441        C442   1.403       .  A
C442        H445   1.079       .  S
C446        C621   1.486       .  S
C446        C447   1.398       .  A
C446        C451   1.409       .  A
C447        C448   1.395       .  A
C447        H452   1.084       .  S
C448        C578   1.478       .  S
C448        C449   1.406       .  A
C449        C450   1.411       .  A
C449        H453   1.081       .  S
C450        C518   1.512       .  S
C450        C451   1.416       .  A
C451        H454   1.083       .  S
O455       Zr467   2.456       .  S
O455        C457   1.291       .  A
O456       Zr493   2.434   1_465  S
O456        C457   1.289       .  A
C457        C781   1.498       .  S
O458       Zr470   2.435       .  S
O458        C460   1.287       .  A
O459       Zr494   2.448   1_455  S
O459        C460   1.291       .  A
C460        C548   1.488       .  S
O461       Zr470   2.445       .  S
O461        C463   1.288       .  A
O462       Zr493   2.412   1_455  S
O462        C463   1.285       .  A
C463        C788   1.487       .  S
O464       Zr467   2.441       .  S
O464        C466   1.288       .  A
O465       Zr494   2.447   1_465  S
O465        C466   1.290       .  A
C466        C528   1.506       .  S
Zr467       O468   2.427       .  S
Zr467       O469   2.435       .  S
Zr467       O473   2.365   1_565  S
Zr467       O474   2.374   1_565  S
Zr467       O497   2.375   1_455  S
Zr467       O499   2.367   1_455  S
O468        H511   0.989       .  S
O469        H510   0.990       .  S
O469        H514   0.990       .  S
Zr470       O471   2.427       .  S
Zr470       O472   2.435       .  S
Zr470       O474   2.374       .  S
Zr470       O473   2.365       .  S
Zr470       O498   2.367   1_455  S
Zr470       O500   2.370   1_455  S
O471        H512   0.988       .  S
O471        H515   0.990       .  S
O472        H505   0.990       .  S
O473       Zr493   2.367   1_455  S
O474       Zr494   2.386   1_455  S
O474        H501   0.966       .  S
O475       Zr487   2.426       .  S
O475        C477   1.285       .  A
O476       Zr494   2.459   1_565  S
O476        C477   1.294       .  A
C477        C521   1.481       .  S
O478       Zr490   2.415       .  S
O478        C480   1.282       .  A
O479       Zr493   2.440       .  S
O479        C480   1.291       .  A
C480        C771   1.469       .  S
O481       Zr490   2.426       .  S
O481        C483   1.285       .  A
O482       Zr494   2.443       .  S
O482        C483   1.290       .  A
C483        C541   1.493       .  S
O484       Zr487   2.458       .  S
O484        C486   1.288       .  A
O485       Zr493   2.405   1_565  S
O485        C486   1.280       .  A
C486        C761   1.509       .  S
Zr487       O488   2.435       .  S
Zr487       O489   2.434       .  S
Zr487       O495   2.380   1_565  S
Zr487       O496   2.359   1_565  S
Zr487       O499   2.364       .  S
Zr487       O497   2.382       .  S
O488        H508   0.989       .  S
O488        H513   0.990       .  S
O489        H509   0.990       .  S
Zr490       O491   2.434       .  S
Zr490       O492   2.432       .  S
Zr490       O496   2.370       .  S
Zr490       O495   2.367       .  S
Zr490       O500   2.363       .  S
Zr490       O498   2.368       .  S
O491        H507   0.990       .  S
O492        H506   0.990       .  S
O492        H516   0.990       .  S
Zr493       O496   2.375       .  S
Zr493       O498   2.381       .  S
Zr493       O499   2.379   1_545  S
Zr494       O495   2.393       .  S
Zr494       O497   2.392   1_545  S
Zr494       O500   2.385       .  S
O495        H503   0.966       .  S
O498        H502   0.966       .  S
O499        H504   0.966       .  S
C517        C518   1.420       .  A
C517        C522   1.408       .  A
C517       Br524   1.929       .  S
C518        C519   1.428       .  A
C519        C520   1.412       .  A
C519       Br526   1.929       .  S
C520        C521   1.403       .  A
C520       Br525   1.929       .  S
C521        C522   1.407       .  A
C522       Br523   1.932       .  S
C527        C528   1.427       .  A
C527        C532   1.408       .  A
C527       Br534   1.929       .  S
C528        C529   1.423       .  A
C529        C530   1.411       .  A
C529       Br536   1.934       .  S
C530        C531   1.409       .  A
C530       Br535   1.934       .  S
C531        C532   1.399       .  A
C532       Br533   1.933       .  S
C537        C538   1.408       .  A
C537        C542   1.406       .  A
C537       Br544   1.928       .  S
C538        C539   1.404       .  A
C539        C540   1.408       .  A
C539       Br546   1.932       .  S
C540        C541   1.422       .  A
C540       Br545   1.928       .  S
C541        C542   1.416       .  A
C542       Br543   1.933       .  S
C547        C548   1.412       .  A
C547        C552   1.403       .  A
C547       Br554   1.926       .  S
C548        C549   1.413       .  A
C549        C550   1.413       .  A
C549       Br556   1.929       .  S
C550        C551   1.417       .  A
C550       Br555   1.931       .  S
C551        C552   1.411       .  A
C552       Br553   1.936       .  S
C557        C558   1.414       .  A
C557        C562   1.403       .  A
C557       Br564   1.933       .  S
C558        C559   1.418       .  A
C559        C560   1.409       .  A
C559       Br566   1.930       .  S
C560        C561   1.407       .  A
C560       Br565   1.931       .  S
C561        C562   1.411       .  A
C562       Br563   1.932       .  S
C567        C568   1.405       .  A
C567        C572   1.392       .  A
C567       Br574   1.930       .  S
C568        C569   1.409       .  A
C569        C570   1.421       .  A
C569       Br576   1.926       .  S
C570        C571   1.431       .  A
C570       Br575   1.932       .  S
C571        C572   1.422       .  A
C572       Br573   1.935       .  S
C577        C578   1.409       .  A
C577        C582   1.414       .  A
C577       Br584   1.926       .  S
C578        C579   1.409       .  A
C579        C580   1.398       .  A
C579       Br586   1.933       .  S
C580        C581   1.411       .  A
C580       Br585   1.933       .  S
C581        C582   1.411       .  A
C582       Br583   1.918       .  S
C587        C588   1.407       .  A
C587        C592   1.408       .  A
C587       Br594   1.920       .  S
C588        C589   1.414       .  A
C589        C590   1.404       .  A
C589       Br596   1.929       .  S
C590        C591   1.404       .  A
C590       Br595   1.932       .  S
C591        C592   1.409       .  A
C592       Br593   1.929       .  S
C597        C598   1.408       .  A
C597        C602   1.412       .  A
C597       Br604   1.927       .  S
C598        C599   1.406       .  A
C599        C600   1.397       .  A
C599       Br606   1.936       .  S
C600        C601   1.409       .  A
C600       Br605   1.927       .  S
C601        C602   1.410       .  A
C602       Br603   1.925       .  S
C607        C608   1.414       .  A
C607        C612   1.415       .  A
C607       Br614   1.926       .  S
C608        C609   1.408       .  A
C609        C610   1.396       .  A
C609       Br616   1.927       .  S
C610        C611   1.407       .  A
C610       Br615   1.928       .  S
C611        C612   1.407       .  A
C612       Br613   1.918       .  S
C617        C618   1.415       .  A
C617        C622   1.409       .  A
C617       Br624   1.930       .  S
C618        C619   1.411       .  A
C619        C620   1.405       .  A
C619       Br626   1.927       .  S
C620        C621   1.411       .  A
C620       Br625   1.929       .  S
C621        C622   1.410       .  A
C622       Br623   1.927       .  S
C627        C628   1.417       .  A
C627        C632   1.406       .  A
C627       Br634   1.936       .  S
C628        C629   1.423       .  A
C629        C630   1.408       .  A
C629       Br636   1.927       .  S
C630        C631   1.406       .  A
C630       Br635   1.932       .  S
C631        C632   1.410       .  A
C632       Br633   1.931       .  S
C637        C638   1.401       .  A
C637        C642   1.402       .  A
C637       Br644   1.932       .  S
C638        C639   1.401       .  A
C639        C640   1.409       .  A
C639       Br646   1.934       .  S
C640        C641   1.429       .  A
C640       Br645   1.936       .  S
C641        C642   1.427       .  A
C642       Br643   1.940       .  S
C647        C648   1.417       .  A
C647        C652   1.405       .  A
C647       Br654   1.931       .  S
C648        C649   1.422       .  A
C649        C650   1.408       .  A
C649       Br656   1.930       .  S
C650        C651   1.404       .  A
C650       Br655   1.933       .  S
C651        C652   1.408       .  A
C652       Br653   1.935       .  S
C657        C658   1.410       .  A
C657        C662   1.408       .  A
C657       Br664   1.932       .  S
C658        C659   1.411       .  A
C659        C660   1.404       .  A
C659       Br666   1.937       .  S
C660        C661   1.415       .  A
C660       Br665   1.928       .  S
C661        C662   1.415       .  A
C662       Br663   1.930       .  S
C667        C668   1.401       .  A
C667        C672   1.397       .  A
C667       Br674   1.946       .  S
C668        C669   1.413       .  A
C669        C670   1.420       .  A
C669       Br676   1.930       .  S
C670        C671   1.420       .  A
C670       Br675   1.917       .  S
C671        C672   1.431       .  A
C672       Br673   1.929       .  S
C677        C678   1.397       .  A
C677        C682   1.392       .  A
C677       Br684   1.938       .  S
C678        C679   1.408       .  A
C679        C680   1.419       .  A
C679       Br686   1.926       .  S
C680        C681   1.419       .  A
C680       Br685   1.913       .  S
C681        C682   1.426       .  A
C682       Br683   1.927       .  S
C687        C688   1.421       .  A
C687        C692   1.405       .  A
C687       Br694   1.931       .  S
C688        C689   1.417       .  A
C689        C690   1.407       .  A
C689       Br696   1.930       .  S
C690        C691   1.406       .  A
C690       Br695   1.930       .  S
C691        C692   1.405       .  A
C692       Br693   1.932       .  S
C697        C698   1.414       .  A
C697        C702   1.411       .  A
C697       Br704   1.932       .  S
C698        C699   1.418       .  A
C699        C700   1.402       .  A
C699       Br706   1.927       .  S
C700        C701   1.405       .  A
C700       Br705   1.933       .  S
C701        C702   1.413       .  A
C702       Br703   1.928       .  S
C707        C708   1.408       .  A
C707        C712   1.411       .  A
C707       Br714   1.926       .  S
C708        C709   1.407       .  A
C709        C710   1.400       .  A
C709       Br716   1.931       .  S
C710        C711   1.410       .  A
C710       Br715   1.933       .  S
C711        C712   1.409       .  A
C712       Br713   1.920       .  S
C717        C718   1.426       .  A
C717        C722   1.413       .  A
C717       Br724   1.925       .  S
C718        C719   1.428       .  A
C719        C720   1.414       .  A
C719       Br726   1.934       .  S
C720        C721   1.407       .  A
C720       Br725   1.935       .  S
C721        C722   1.406       .  A
C722       Br723   1.936       .  S
C727        C728   1.420       .  A
C727        C732   1.408       .  A
C727       Br734   1.931       .  S
C728        C729   1.418       .  A
C729        C730   1.413       .  A
C729       Br736   1.934       .  S
C730        C731   1.416       .  A
C730       Br735   1.934       .  S
C731        C732   1.409       .  A
C732       Br733   1.935       .  S
C737        C738   1.435       .  A
C737        C742   1.413       .  A
C737       Br744   1.937       .  S
C738        C739   1.427       .  A
C739        C740   1.411       .  A
C739       Br746   1.934       .  S
C740        C741   1.404       .  A
C740       Br745   1.929       .  S
C741        C742   1.401       .  A
C742       Br743   1.936       .  S
C747        C748   1.406       .  A
C747        C752   1.408       .  A
C747       Br754   1.931       .  S
C748        C749   1.403       .  A
C749        C750   1.412       .  A
C749       Br756   1.932       .  S
C750        C751   1.429       .  A
C750       Br755   1.927       .  S
C751        C752   1.420       .  A
C752       Br753   1.931       .  S
C757        C758   1.403       .  A
C757        C762   1.412       .  A
C757       Br764   1.934       .  S
C758        C759   1.402       .  A
C759        C760   1.405       .  A
C759       Br766   1.937       .  S
C760        C761   1.432       .  A
C760       Br765   1.947       .  S
C761        C762   1.431       .  A
C762       Br763   1.937       .  S
C767        C768   1.418       .  A
C767        C772   1.401       .  A
C767       Br774   1.933       .  S
C768        C769   1.417       .  A
C769        C770   1.407       .  A
C769       Br776   1.933       .  S
C770        C771   1.407       .  A
C770       Br775   1.930       .  S
C771        C772   1.401       .  A
C772       Br773   1.926       .  S
C777        C778   1.412       .  A
C777        C782   1.409       .  A
C777       Br784   1.925       .  S
C778        C779   1.413       .  A
C779        C780   1.410       .  A
C779       Br786   1.933       .  S
C780        C781   1.414       .  A
C780       Br785   1.920   1_455  S
C781        C782   1.415       .  A
C782       Br783   1.927       .  S
C787        C788   1.416       .  A
C787        C792   1.406       .  A
C787       Br794   1.937       .  S
C788        C789   1.418       .  A
C789        C790   1.406       .  A
C789       Br796   1.929       .  S
C790        C791   1.409       .  A
C790       Br795   1.936       .  S
C791        C792   1.413       .  A
C792       Br793   1.935       .  S
C797        C798   1.423       .  A
C797        C802   1.420       .  A
C797       Br804   1.929       .  S
C798        C799   1.416       .  A
C799        C800   1.413       .  A
C799       Br806   1.935       .  S
C800        C801   1.418       .  A
C800       Br805   1.932       .  S
C801        C802   1.414       .  A
C802       Br803   1.932       .  S
C807        C808   1.415       .  A
C807        C812   1.419       .  A
C807       Br814   1.933       .  S
C808        C809   1.403       .  A
C809        C810   1.410       .  A
C809       Br816   1.939       .  S
C810        C811   1.434       .  A
C810       Br815   1.934       .  S
C811        C812   1.422       .  A
C812       Br813   1.933       .  S
C817        C818   1.410       .  A
C817        C822   1.411       .  A
C817       Br824   1.933       .  S
C818        C819   1.406       .  A
C819        C820   1.419       .  A
C819       Br826   1.933       .  S
C820        C821   1.428       .  A
C820       Br825   1.918       .  S
C821        C822   1.418       .  A
C822       Br823   1.925       .  S
C827        C828   1.411       .  A
C827        C832   1.413       .  A
C827       Br834   1.925       .  S
C828        C829   1.410       .  A
C829        C830   1.400       .  A
C829       Br836   1.928       .  S
C830        C831   1.406       .  A
C830       Br835   1.933       .  S
C831        C832   1.408       .  A
C832       Br833   1.925       .  S
C837        C838   1.402       .  A
C837        C842   1.404       .  A
C837       Br844   1.921       .  S
C838        C839   1.408       .  A
C839        C840   1.405       .  A
C839       Br846   1.930       .  S
C840        C841   1.412       .  A
C840       Br845   1.922       .  S
C841        C842   1.420       .  A
C842       Br843   1.933       .  S
C847        C848   1.413       .  A
C847        C852   1.405       .  A
C847       Br854   1.931       .  S
C848        C849   1.412       .  A
C849        C850   1.403       .  A
C849       Br856   1.933       .  S
C850        C851   1.405       .  A
C850       Br855   1.924       .  S
C851        C852   1.405       .  A
C852       Br853   1.930       .  S
C857        C858   1.432       .  A
C857        C862   1.413       .  A
C857       Br864   1.936       .  S
C858        C859   1.436       .  A
C859        C860   1.406       .  A
C859       Br866   1.945       .  S
C860        C861   1.401       .  A
C860       Br865   1.941       .  S
C861        C862   1.402       .  A
C862       Br863   1.934       .  S
C867        C868   1.407       .  A
C867        C872   1.403       .  A
C867       Br874   1.925       .  S
C868        C869   1.414       .  A
C869        C870   1.413       .  A
C869       Br876   1.931       .  S
C870        C871   1.415       .  A
C870       Br875   1.931       .  S
C871        C872   1.415       .  A
C872       Br873   1.934       .  S
C877        C878   1.394       .  A
C877        C882   1.405       .  A
C877       Br884   1.931       .  S
C878        C879   1.401       .  A
C879        C880   1.414       .  A
C879       Br886   1.933       .  S
C880        C881   1.432       .  A
C880       Br885   1.922       .  S
C881        C882   1.434       .  A
C882       Br883   1.931       .  S
C887        C888   1.422       .  A
C887        C892   1.410       .  A
C887       Br894   1.931       .  S
C888        C889   1.425       .  A
C889        C890   1.406       .  A
C889       Br896   1.936       .  S
C890        C891   1.405       .  A
C890       Br895   1.936       .  S
C891        C892   1.407       .  A
C892       Br893   1.934       .  S
C897        C898   1.416       .  A
C897        C902   1.422       .  A
C897       Br904   1.927       .  S
C898        C899   1.406       .  A
C899        C900   1.413       .  A
C899       Br906   1.936       .  S
C900        C901   1.429       .  A
C900       Br905   1.934       .  S
C901        C902   1.420       .  A
C902       Br903   1.930       .  S
C907        C908   1.405       .  A
C907        C912   1.394       .  A
C907       Br914   1.944       .  S
C908        C909   1.419       .  A
C909        C910   1.419       .  A
C909       Br916   1.929       .  S
C910        C911   1.414       .  A
C910       Br915   1.929       .  S
C911        C912   1.423       .  A
C912       Br913   1.928       .  S
C917        C918   1.408       .  A
C917        C922   1.413       .  A
C917       Br924   1.924       .  S
C918        C919   1.411       .  A
C919        C920   1.403       .  A
C919       Br926   1.930       .  S
C920        C921   1.406       .  A
C920       Br925   1.928       .  S
C921        C922   1.412       .  A
C922       Br923   1.927       .  S
C927        C928   1.393       .  A
C927        C932   1.380       .  A
C927       Br934   1.927       .  S
C928        C929   1.420       .  A
C929        C930   1.428       .  A
C929       Br936   1.924       .  S
C930        C931   1.418       .  A
C930       Br935   1.925       .  S
C931        C932   1.416       .  A
C932       Br933   1.919       .  S
C937        C938   1.414       .  A
C937        C942   1.424       .  A
C937       Br944   1.927       .  S
C938        C939   1.420       .  A
C939        C940   1.390       .  A
C939       Br946   1.936       .  S
C940        C941   1.411       .  A
C940       Br945   1.938       .  S
C941        C942   1.430       .  A
C942       Br943   1.931       .  S
C947        C948   1.405       .  A
C947        C952   1.403       .  A
C947       Br954   1.931       .  S
C948        C949   1.412       .  A
C949        C950   1.413       .  A
C949       Br956   1.927       .  S
C950        C951   1.408       .  A
C950       Br955   1.924       .  S
C951        C952   1.413       .  A
C952       Br953   1.929       .  S
C957        C958   1.401       .  A
C957        C962   1.409       .  A
C957       Br964   1.938       .  S
C958        C959   1.405       .  A
C959        C960   1.414       .  A
C959       Br966   1.931       .  S
C960        C961   1.427       .  A
C960       Br965   1.934       .  S
C961        C962   1.433       .  A
C962       Br963   1.936       .  S
C967        C968   1.416       .  A
C967        C972   1.410       .  A
C967       Br974   1.932       .  S
C968        C969   1.422       .  A
C969        C970   1.409       .  A
C969       Br976   1.926       .  S
C970        C971   1.402       .  A
C970       Br975   1.931       .  S
C971        C972   1.412       .  A
C972       Br973   1.931       .  S
C977        C978   1.426       .  A
C977        C982   1.407       .  A
C977       Br984   1.932       .  S
C978        C979   1.423       .  A
C979        C980   1.407       .  A
C979       Br986   1.933       .  S
C980        C981   1.404       .  A
C980       Br985   1.935       .  S
C981        C982   1.402       .  A
C982       Br983   1.935       .  S
C987        C988   1.419       .  A
C987        C992   1.410       .  A
C987       Br994   1.935       .  S
C988        C989   1.421       .  A
C989        C990   1.405       .  A
C989       Br996   1.930       .  S
C990        C991   1.408       .  A
C990       Br995   1.938       .  S
C991        C992   1.410       .  A
C992       Br993   1.934       .  S
