geometry optimzed in LAMMPS
_audit_creation_date              2020-12-01 
_audit_creation_method            'lammps2cif' 
_symmetry_space_group_name_H-M    'P1' 
_symmetry_Int_Tables_number       1 
_symmetry_cell_setting            triclinic 
loop_ 
_symmetry_equiv_pos_as_xyz 
  x,y,z 
_cell_length_a                    27.51133628 
_cell_length_b                    27.875861366070893 
_cell_length_c                    22.14705780438471 
_cell_angle_alpha                 90.9927230388902 
_cell_angle_beta                  89.54158355406314 
_cell_angle_gamma                 120.38308015036758 
loop_ 
_atom_site_label 
_atom_site_type_symbol 
_atom_site_fract_x 
_atom_site_fract_y 
_atom_site_fract_z 
_atom_site_charge 
Fe1        Fe  0.41780285  0.20978892  0.25042367     1.65800
Fe2        Fe  0.29366276  0.20836417  0.24784337     1.73200
Fe3        Fe  0.29373805  0.08737499  0.25281857     1.54400
O4          O  0.33542532  0.08135488  0.17884792    -0.82100
O5          O  0.22965825  0.15304756  0.30464144    -0.80400
O6          O  0.42298182  0.15149958  0.19473270    -0.84600
O7          O  0.42302036  0.17009347  0.32529241    -0.80100
O8          O  0.23001501  0.07896336  0.19555912    -0.81200
O9          O  0.33509522  0.25573175  0.32208356    -0.84000
C10         C  0.39805874  0.11830463  0.33486498     0.96800
C11         C  0.38799690  0.10540615  0.16947415     1.04200
O12         O  0.33521495  0.16856860  0.25046079    -1.13000
O13         O  0.35171578  0.26999724  0.19149623    -0.75400
O14         O  0.42223997  0.25394497  0.17530338    -0.78900
O15         O  0.35169832  0.08379156  0.30955052    -0.79600
C16         C  0.39776144  0.28125274  0.16589592     0.95700
O17         O  0.42274401  0.27321142  0.30624199    -0.77500
O18         O  0.24859102  0.16423721  0.17297120    -0.82700
C19         C  0.21992155  0.11043000  0.33433815     0.98300
C20         C  0.22031932  0.11188140  0.16580690     1.04200
O21         O  0.24831798  0.08640243  0.32736890    -0.78400
C22         C  0.38765231  0.28417040  0.33162764     1.02500
C23         C  0.99869018  0.99895488  0.03974841    -0.02900
C24         C  0.49880444  0.00101380  0.46138748    -0.02900
C25         C  0.45418724  0.10746236  0.09156413    -0.26800
C26         C  0.40979892  0.07676186  0.13099148    -0.14800
C27         C  0.39218085  0.02040255  0.13962111     0.35800
C28         C  0.41904931  0.99620891  0.10894427    -0.26200
C29         C  0.46401090  0.02569035  0.06718945    -0.15400
C30         C  0.48177500  0.08354408  0.06075046     0.36900
N31         N  0.03094182  0.12016321  0.02728939    -0.89700
H32         H  0.46947332  0.15145362  0.08647797     0.18000
H33         H  0.40636789  0.45512465  0.12374286     0.18000
N34         N  0.34987674  0.98726516  0.18304970    -0.88700
H35         H  0.06016706  0.15024163  0.05713818     0.35400
H36         H  0.02005314  0.14085727  0.99604573     0.40500
H37         H  0.31161534  0.98349335  0.17026239     0.40100
H38         H  0.36193624  0.50698460  0.22541020     0.35000
C39         C  0.12595141  0.09547733  0.15012630    -0.26800
C40         C  0.16923361  0.08822044  0.12811067    -0.14800
C41         C  0.15845964  0.05174596  0.07885149     0.35800
C42         C  0.10480049  0.02506927  0.05189747    -0.26200
C43         C  0.06005411  0.03383838  0.07067593    -0.15400
C44         C  0.07113701  0.06506485  0.12686311     0.36900
N45         N  0.02675501  0.05912222  0.16637913    -0.89700
H46         H  0.13336552  0.11996269  0.19125867     0.18000
H47         H  0.09887574  0.99686775  0.01566541     0.18000
N48         N  0.20045205  0.04038097  0.05494367    -0.88700
H49         H  0.04203811  0.08724175  0.20284646     0.35400
H50         H  0.00825143  0.01936038  0.18467698     0.40500
H51         H  0.23885350  0.06359462  0.07746001     0.40100
H52         H  0.20789715  0.05352463  0.01015028     0.35000
C53         C  0.50289998  0.42425428  0.10984479    -0.26800
C54         C  0.47225218  0.43651723  0.06654357    -0.14800
C55         C  0.41560510  0.39078188  0.05568869     0.35800
C56         C  0.39404462  0.33990975  0.08563132    -0.26200
C57         C  0.42566571  0.33074463  0.12732461    -0.15400
C58         C  0.48118936  0.37321234  0.13855198     0.36900
N59         N  0.51603751  0.36730878  0.18212898    -0.89700
H60         H  0.54418382  0.45421977  0.12587512     0.18000
H61         H  0.35058303  0.30772130  0.07787974     0.18000
N62         N  0.37638063  0.39595865  0.01906619    -0.88700
H63         H  0.52187214  0.33450631  0.16843503     0.35400
H64         H  0.49568382  0.35816662  0.22397597     0.40500
H65         H  0.34270635  0.39029409  0.04637049     0.40100
H66         H  0.35980091  0.36330323  0.98734236     0.35000
C67         C  0.39478539  0.05641118  0.41550756    -0.26800
C68         C  0.42594835  0.09628581  0.37297100    -0.14800
C69         C  0.48088837  0.10841502  0.36040524     0.35800
C70         C  0.50299621  0.07940278  0.39005561    -0.26200
C71         C  0.47267177  0.03733752  0.43431921    -0.15400
C72         C  0.41624939  0.02694526  0.44535801     0.36900
N73         N  0.37699670  0.48271647  0.48192953    -0.89700
H74         H  0.35157606  0.04577860  0.42382640     0.18000
H75         H  0.04372934  0.08933058  0.37374371     0.18000
N76         N  0.51324947  0.14804577  0.31451259    -0.88700
H77         H  0.34331829  0.45481717  0.45453254     0.35400
H78         H  0.36044212  0.49890361  0.51355130     0.40500
H79         H  0.49343313  0.13143752  0.27302957     0.40100
H80         H  0.05371975  0.15367492  0.31093295     0.35000
C81         C  0.10471029  0.08088310  0.44909748    -0.26800
C82         C  0.06018077  0.02710935  0.43066441    -0.14800
C83         C  0.07146717  0.00698932  0.37458000     0.35800
C84         C  0.12573010  0.03237093  0.35014206    -0.26200
C85         C  0.16881941  0.08303550  0.37190857    -0.15400
C86         C  0.15795875  0.10851889  0.42131291     0.36900
N87         N  0.19972804  0.16192110  0.44517792    -0.89700
H88         H  0.09889746  0.10292586  0.48563527     0.18000
H89         H  0.13251074  0.01499333  0.30885033     0.18000
N90         N  0.02798728  0.46589178  0.33648016    -0.88700
H91         H  0.18544955  0.18969860  0.43786639     0.35400
H92         H  0.23816004  0.17740343  0.42270306     0.40500
H93         H  0.02820911  0.48425750  0.29560218     0.40100
H94         H  0.03699485  0.43427107  0.32718510     0.35000
C95         C  0.45319109  0.34758026  0.41046405    -0.26800
C96         C  0.40928186  0.33439497  0.37042927    -0.14800
C97         C  0.39210342  0.37346806  0.36143853     0.35800
C98         C  0.41941245  0.42467783  0.39176411    -0.26200
C99         C  0.46392824  0.43969500  0.43403244    -0.15400
C100        C  0.48105070  0.39911501  0.44117212     0.36900
N101        N  0.03030619  0.41145359  0.47451017    -0.89700
H102        H  0.46812178  0.31859283  0.41583841     0.18000
H103        H  0.40708837  0.45332611  0.37672697     0.18000
N104        N  0.34963747  0.36434111  0.31814875    -0.88700
H105        H  0.05936967  0.41045038  0.44455459     0.35400
H106        H  0.01945399  0.37979637  0.50559591     0.40500
H107        H  0.31137633  0.33009489  0.33121837     0.40100
H108        H  0.36130128  0.35626649  0.27582266     0.35000
Fe109      Fe  0.41780211  0.20978864  0.75042317     1.65800
Fe110      Fe  0.29366203  0.20836394  0.74784367     1.73200
Fe111      Fe  0.29373728  0.08737463  0.75281848     1.54400
O112        O  0.33542449  0.08135452  0.67884770    -0.82100
O113        O  0.22965752  0.15304722  0.80464174    -0.80400
O114        O  0.42298095  0.15149970  0.69473130    -0.84600
O115        O  0.42301998  0.17009255  0.82529139    -0.80100
O116        O  0.23001423  0.07896318  0.69555938    -0.81200
O117        O  0.33509465  0.25573138  0.82208392    -0.84000
C118        C  0.39805804  0.11830370  0.83486433     0.96800
C119        C  0.38799597  0.10540608  0.66947308     1.04200
O120        O  0.33521422  0.16856830  0.75046071    -1.13000
O121        O  0.35171490  0.26999729  0.69149652    -0.75400
O122        O  0.42223902  0.25394505  0.67530327    -0.78900
O123        O  0.35169733  0.08379078  0.80955038    -0.79600
C124        C  0.39776050  0.28125286  0.66589607     0.95700
O125        O  0.42274342  0.27321100  0.80624221    -0.77500
O126        O  0.24859020  0.16423704  0.67297152    -0.82700
C127        C  0.21992082  0.11042955  0.83433824     0.98300
C128        C  0.22031845  0.11188123  0.66580735     1.04200
O129        O  0.24831731  0.08640205  0.82736879    -0.78400
C130        C  0.38765172  0.28416992  0.83162813     1.02500
C131        C  0.99868999  0.99895499  0.53974797    -0.02900
C132        C  0.49880401  0.00101323  0.96138794    -0.02900
C133        C  0.45418714  0.10746261  0.59156365    -0.26800
C134        C  0.40979789  0.07676186  0.63098994    -0.14800
C135        C  0.39217899  0.02040221  0.63961859     0.35800
C136        C  0.41904795  0.99620875  0.60894234    -0.26200
C137        C  0.46401057  0.02569051  0.56718873    -0.15400
C138        C  0.48177523  0.08354442  0.56075043     0.36900
N139        N  0.03094280  0.12016386  0.52729056    -0.89700
H140        H  0.46947373  0.15145407  0.58647811     0.18000
H141        H  0.40636588  0.45512430  0.62374038     0.18000
N142        N  0.34987386  0.98726444  0.68304615    -0.88700
H143        H  0.06016756  0.15024169  0.55714005     0.35400
H144        H  0.02005487  0.14085850  0.49604691     0.40500
H145        H  0.31161276  0.98349296  0.67025760     0.40100
H146        H  0.36193186  0.50698243  0.72540663     0.35000
C147        C  0.12595014  0.09547630  0.65012724    -0.26800
C148        C  0.16923273  0.08822014  0.62811125    -0.14800
C149        C  0.15845913  0.05174600  0.57885181     0.35800
C150        C  0.10480017  0.02506937  0.55189755    -0.26200
C151        C  0.06005364  0.03383826  0.57067588    -0.15400
C152        C  0.07113592  0.06506379  0.62686364     0.36900
N153        N  0.02675336  0.05912017  0.66637940    -0.89700
H154        H  0.13336384  0.11996113  0.69125991     0.18000
H155        H  0.09887571  0.99686808  0.51566529     0.18000
N156        N  0.20045159  0.04038113  0.55494380    -0.88700
H157        H  0.04203613  0.08723854  0.70284782     0.35400
H158        H  0.00824923  0.01935776  0.68467576     0.40500
H159        H  0.23885298  0.06359459  0.57746052     0.40100
H160        H  0.20789692  0.05352504  0.51015065     0.35000
C161        C  0.50289928  0.42425422  0.60984460    -0.26800
C162        C  0.47225169  0.43651722  0.56654315    -0.14800
C163        C  0.41560471  0.39078176  0.55568795     0.35800
C164        C  0.39404396  0.33990982  0.58563114    -0.26200
C165        C  0.42566484  0.33074483  0.62732481    -0.15400
C166        C  0.48118857  0.37321241  0.63855211     0.36900
N167        N  0.51603675  0.36730887  0.68212908    -0.89700
H168        H  0.54418331  0.45421964  0.62587483     0.18000
H169        H  0.35058242  0.30772135  0.57787943     0.18000
N170        N  0.37638065  0.39595812  0.51906437    -0.88700
H171        H  0.52187124  0.33450627  0.66843532     0.35400
H172        H  0.49568315  0.35816693  0.72397616     0.40500
H173        H  0.34270580  0.39029338  0.54636789     0.40100
H174        H  0.35980164  0.36330273  0.48734052     0.35000
C175        C  0.39478524  0.05641132  0.91550818    -0.26800
C176        C  0.42594770  0.09628467  0.87297014    -0.14800
C177        C  0.48088698  0.10841232  0.86040284     0.35800
C178        C  0.50299493  0.07940052  0.89005395    -0.26200
C179        C  0.47267116  0.03733670  0.93431921    -0.15400
C180        C  0.41624916  0.02694534  0.94535886     0.36900
N181        N  0.37699701  0.48271756  0.98193169    -0.89700
H182        H  0.35157642  0.04577970  0.92382799     0.18000
H183        H  0.04372754  0.08932736  0.87374125     0.18000
N184        N  0.51324729  0.14804111  0.81450824    -0.88700
H185        H  0.34331790  0.45481786  0.95453552     0.35400
H186        H  0.36044320  0.49890549  0.01355344     0.40500
H187        H  0.49342927  0.13143174  0.77302611     0.40100
H188        H  0.05371693  0.15366894  0.81092719     0.35000
C189        C  0.10470956  0.08088288  0.94909735    -0.26800
C190        C  0.06018028  0.02710878  0.93066483    -0.14800
C191        C  0.07146688  0.00698828  0.87458088     0.35800
C192        C  0.12572981  0.03236987  0.85014302    -0.26200
C193        C  0.16881887  0.08303496  0.87190886    -0.15400
C194        C  0.15795793  0.10851874  0.92131263     0.36900
N195        N  0.19972688  0.16192148  0.94517686    -0.89700
H196        H  0.09889676  0.10292573  0.98563493     0.18000
H197        H  0.13251056  0.01499187  0.80885173     0.18000
N198        N  0.02798712  0.46589038  0.83648128    -0.88700
H199        H  0.18544812  0.18969857  0.93786425     0.35400
H200        H  0.23815904  0.17740369  0.92270235     0.40500
H201        H  0.02820867  0.48425579  0.79560324     0.40100
H202        H  0.03699494  0.43426979  0.82718654     0.35000
C203        C  0.45319088  0.34757970  0.91046455    -0.26800
C204        C  0.40928122  0.33439423  0.87043024    -0.14800
C205        C  0.39210224  0.37346702  0.86144036     0.35800
C206        C  0.41941144  0.42467682  0.89176570    -0.26200
C207        C  0.46392780  0.43969431  0.93403334    -0.15400
C208        C  0.48105046  0.39911439  0.94117276     0.36900
N209        N  0.03030649  0.41145328  0.97450996    -0.89700
H210        H  0.46812193  0.31859249  0.91583828     0.18000
H211        H  0.40708665  0.45332476  0.87672914     0.18000
N212        N  0.34963530  0.36433961  0.81815168    -0.88700
H213        H  0.05936947  0.41044972  0.94455406     0.35400
H214        H  0.01945468  0.37979634  0.00559613     0.40500
H215        H  0.31137455  0.33009333  0.83122218     0.40100
H216        H  0.36129830  0.35626491  0.77582520     0.35000
Fe217      Fe  0.41783053  0.70979964  0.25042001     1.65800
Fe218      Fe  0.29368104  0.70835595  0.24784164     1.73200
Fe219      Fe  0.29377316  0.58737715  0.25282086     1.54400
O220        O  0.33546372  0.58136113  0.17885211    -0.82100
O221        O  0.22967862  0.65303582  0.30463776    -0.80400
O222        O  0.42301726  0.65151419  0.19473007    -0.84600
O223        O  0.42305908  0.67010851  0.32528819    -0.80100
O224        O  0.23004846  0.57895782  0.19555772    -0.81200
O225        O  0.33510729  0.75572159  0.32208321    -0.84000
C226        C  0.39809950  0.61832044  0.33486610     0.96800
C227        C  0.38803516  0.60541680  0.16947680     1.04200
O228        O  0.33524248  0.66857000  0.25046034    -1.13000
O229        O  0.35172693  0.76999312  0.19149712    -0.75400
O230        O  0.42225776  0.75395231  0.17529866    -0.78900
O231        O  0.35173794  0.58380397  0.30955553    -0.79600
C232        C  0.39777196  0.78125377  0.16589322     0.95700
O233        O  0.42276170  0.77321801  0.30623882    -0.77500
O234        O  0.24861857  0.66422904  0.17296675    -0.82700
C235        C  0.21994837  0.61042268  0.33433857     0.98300
C236        C  0.22035124  0.61187337  0.16580236     1.04200
O237        O  0.24834953  0.58639994  0.32737076    -0.78400
C238        C  0.38766393  0.78416794  0.33162595     1.02500
C239        C  0.99871914  0.49895557  0.03975018    -0.02900
C240        C  0.49883238  0.50101814  0.46138936    -0.02900
C241        C  0.45422736  0.60747075  0.09157062    -0.26800
C242        C  0.40983967  0.57677215  0.13099921    -0.14800
C243        C  0.39222357  0.52041409  0.13963473     0.35800
C244        C  0.41908749  0.49621761  0.10895519    -0.26200
C245        C  0.46404602  0.52569588  0.06719594    -0.15400
C246        C  0.48181380  0.58355063  0.06075805     0.36900
N247        N  0.03098167  0.62016843  0.02729787    -0.89700
H248        H  0.46951389  0.65146195  0.08648244     0.18000
H249        H  0.40632835  0.95511464  0.12372791     0.18000
N250        N  0.34992865  0.48728198  0.18307403    -0.88700
H251        H  0.06020747  0.65024541  0.05714745     0.35400
H252        H  0.02009522  0.64086443  0.99605452     0.40500
H253        H  0.31166332  0.48350516  0.17029394     0.40100
H254        H  0.36187693  0.00696134  0.22538979     0.35000
C255        C  0.12598517  0.59547000  0.15012498    -0.26800
C256        C  0.16926502  0.58821075  0.12810758    -0.14800
C257        C  0.15848881  0.55173596  0.07884809     0.35800
C258        C  0.10482787  0.52505926  0.05189682    -0.26200
C259        C  0.06008398  0.53383198  0.07067753    -0.15400
C260        C  0.07117048  0.56505975  0.12686415     0.36900
N261        N  0.02679136  0.55912048  0.16638250    -0.89700
H262        H  0.13340151  0.61995639  0.19125700     0.18000
H263        H  0.09889955  0.49685584  0.01566503     0.18000
N264        N  0.20048098  0.54037231  0.05493649    -0.88700
H265        H  0.04207659  0.58724291  0.20284729     0.35400
H266        H  0.00828870  0.51935993  0.18468360     0.40500
H267        H  0.23888311  0.56358627  0.07745172     0.40100
H268        H  0.20792432  0.55351697  0.01014347     0.35000
C269        C  0.50288363  0.92426522  0.10985105    -0.26800
C270        C  0.47223136  0.93651870  0.06654584    -0.14800
C271        C  0.41558913  0.89077512  0.05568870     0.35800
C272        C  0.39403919  0.83990288  0.08562914    -0.26200
C273        C  0.42566663  0.83074610  0.12732250    -0.15400
C274        C  0.48118396  0.87322380  0.13855578     0.36900
N275        N  0.51603559  0.86733063  0.18213704    -0.89700
H276        H  0.54416279  0.95423773  0.12588685     0.18000
H277        H  0.35058082  0.80770707  0.07787553     0.18000
N278        N  0.37635932  0.89594178  0.01906422    -0.88700
H279        H  0.52188235  0.83453523  0.16844467     0.35400
H280        H  0.49567810  0.85818263  0.22398191     0.40500
H281        H  0.34268111  0.89026892  0.04636676     0.40100
H282        H  0.35978707  0.86328678  0.98733985     0.35000
C283        C  0.39482840  0.55643593  0.41551686    -0.26800
C284        C  0.42599096  0.59630541  0.37297583    -0.14800
C285        C  0.48092904  0.60842883  0.36040828     0.35800
C286        C  0.50303328  0.57941257  0.39005840    -0.26200
C287        C  0.47270720  0.53734996  0.43432432    -0.15400
C288        C  0.41628841  0.52696654  0.44536700     0.36900
N289        N  0.37695947  0.98268993  0.48191641    -0.89700
H290        H  0.35162098  0.54580864  0.42383840     0.18000
H291        H  0.04376384  0.58933387  0.37374397     0.18000
N292        N  0.51329145  0.64805733  0.31451436    -0.88700
H293        H  0.34328473  0.95478890  0.45451664     0.35400
H294        H  0.36039847  0.99887112  0.51353782     0.40500
H295        H  0.49347291  0.63144997  0.27303209     0.40100
H296        H  0.05375967  0.65368165  0.31093321     0.35000
C297        C  0.10474059  0.58088031  0.44910032    -0.26800
C298        C  0.06020858  0.52710798  0.43066695    -0.14800
C299        C  0.07149543  0.50698324  0.37458603     0.35800
C300        C  0.12575868  0.53236267  0.35014875    -0.26200
C301        C  0.16884856  0.58302805  0.37191259    -0.15400
C302        C  0.15798924  0.60851351  0.42131598     0.36900
N303        N  0.19975998  0.66191573  0.44517971    -0.89700
H304        H  0.09892946  0.60292402  0.48563816     0.18000
H305        H  0.13253910  0.51498267  0.30885883     0.18000
N306        N  0.02795835  0.96590163  0.33647168    -0.88700
H307        H  0.18548305  0.68969426  0.43786670     0.35400
H308        H  0.23819183  0.67739615  0.42270489     0.40500
H309        H  0.02818004  0.98427119  0.29559659     0.40100
H310        H  0.03696492  0.93428109  0.32717143     0.35000
C311        C  0.45319163  0.84758228  0.41046584    -0.26800
C312        C  0.40928374  0.83439083  0.37042748    -0.14800
C313        C  0.39209503  0.87345583  0.36143521     0.35800
C314        C  0.41939300  0.92466445  0.39176314    -0.26200
C315        C  0.46390900  0.93968909  0.43403330    -0.15400
C316        C  0.48104151  0.89911668  0.44117483     0.36900
N317        N  0.03029633  0.91146190  0.47451778    -0.89700
H318        H  0.46812900  0.81860042  0.41584235     0.18000
H319        H  0.40706251  0.95330726  0.37672406     0.18000
N320        N  0.34962990  0.86432230  0.31814123    -0.88700
H321        H  0.05936481  0.91046419  0.44456548     0.35400
H322        H  0.01944611  0.87980538  0.50560395     0.40500
H323        H  0.31137100  0.83007142  0.33120710     0.40100
H324        H  0.36130038  0.85625264  0.27581630     0.35000
Fe325      Fe  0.41782983  0.70979928  0.75041962     1.65800
Fe326      Fe  0.29368031  0.70835568  0.74784195     1.73200
Fe327      Fe  0.29377236  0.58737680  0.75282087     1.54400
O328        O  0.33546280  0.58136087  0.67885181    -0.82100
O329        O  0.22967787  0.65303552  0.80463804    -0.80400
O330        O  0.42301640  0.65151406  0.69472906    -0.84600
O331        O  0.42305874  0.67010752  0.82528722    -0.80100
O332        O  0.23004761  0.57895752  0.69555810    -0.81200
O333        O  0.33510680  0.75572120  0.82208357    -0.84000
C334        C  0.39809883  0.61831945  0.83486540     0.96800
C335        C  0.38803416  0.60541668  0.66947584     1.04200
O336        O  0.33524175  0.66856968  0.75046027    -1.13000
O337        O  0.35172600  0.76999294  0.69149726    -0.75400
O338        O  0.42225705  0.75395249  0.67529876    -0.78900
O339        O  0.35173695  0.58380315  0.80955535    -0.79600
C340        C  0.39777108  0.78125379  0.66589333     0.95700
O341        O  0.42276119  0.77321761  0.80623892    -0.77500
O342        O  0.24861770  0.66422874  0.67296717    -0.82700
C343        C  0.21994760  0.61042231  0.83433873     0.98300
C344        C  0.22035029  0.61187306  0.66580292     1.04200
O345        O  0.24834885  0.58639966  0.82737088    -0.78400
C346        C  0.38766346  0.78416743  0.83162636     1.02500
C347        C  0.99871883  0.49895567  0.53974972    -0.02900
C348        C  0.49883202  0.50101761  0.96138983    -0.02900
C349        C  0.45422724  0.60747111  0.59157019    -0.26800
C350        C  0.40983859  0.57677218  0.63099769    -0.14800
C351        C  0.39222168  0.52041376  0.63963212     0.35800
C352        C  0.41908616  0.49621750  0.60895323    -0.26200
C353        C  0.46404566  0.52569611  0.56719517    -0.15400
C354        C  0.48181395  0.58355103  0.56075795     0.36900
N355        N  0.03098287  0.62016900  0.52729924    -0.89700
H356        H  0.46951439  0.65146254  0.58648271     0.18000
H357        H  0.40632629  0.95511413  0.62372550     0.18000
N358        N  0.34992538  0.48728090  0.68306980    -0.88700
H359        H  0.06020810  0.65024550  0.55714948     0.35400
H360        H  0.02009733  0.64086560  0.49605555     0.40500
H361        H  0.31166056  0.48350473  0.67028865     0.40100
H362        H  0.36187297  0.00695989  0.72538645     0.35000
C363        C  0.12598390  0.59546894  0.65012587    -0.26800
C364        C  0.16926405  0.58821035  0.62810818    -0.14800
C365        C  0.15848817  0.55173591  0.57884842     0.35800
C366        C  0.10482743  0.52505936  0.55189676    -0.26200
C367        C  0.06008343  0.53383184  0.57067743    -0.15400
C368        C  0.07116933  0.56505860  0.62686467     0.36900
N369        N  0.02678980  0.55911853  0.66638283    -0.89700
H370        H  0.13339989  0.61995481  0.69125819     0.18000
H371        H  0.09889942  0.49685630  0.51566472     0.18000
N372        N  0.20048031  0.54037207  0.55493722    -0.88700
H373        H  0.04207475  0.58723982  0.70284859     0.35400
H374        H  0.00828652  0.51935740  0.68468243     0.40500
H375        H  0.23888234  0.56358590  0.57745266     0.40100
H376        H  0.20792391  0.55351668  0.51014418     0.35000
C377        C  0.50288301  0.92426520  0.60985091    -0.26800
C378        C  0.47223097  0.93651874  0.56654540    -0.14800
C379        C  0.41558883  0.89077507  0.55568797     0.35800
C380        C  0.39403859  0.83990298  0.58562888    -0.26200
C381        C  0.42566581  0.83074624  0.62732262    -0.15400
C382        C  0.48118314  0.87322388  0.63855583     0.36900
N383        N  0.51603483  0.86733069  0.68213699    -0.89700
H384        H  0.54416228  0.95423765  0.62588673     0.18000
H385        H  0.35058029  0.80770718  0.57787500     0.18000
N386        N  0.37635942  0.89594133  0.51906244    -0.88700
H387        H  0.52188145  0.83453521  0.66844469     0.35400
H388        H  0.49567732  0.85818281  0.72398194     0.40500
H389        H  0.34268069  0.89026840  0.54636421     0.40100
H390        H  0.35978781  0.86328628  0.48733814     0.35000
C391        C  0.39482834  0.55643611  0.91551751    -0.26800
C392        C  0.42599027  0.59630420  0.87297491    -0.14800
C393        C  0.48092768  0.60842616  0.86040590     0.35800
C394        C  0.50303213  0.57941045  0.89005685    -0.26200
C395        C  0.47270669  0.53734923  0.93432435    -0.15400
C396        C  0.41628826  0.52696664  0.94536785     0.36900
N397        N  0.37695941  0.98269100  0.98191867    -0.89700
H398        H  0.35162131  0.54580979  0.92384013     0.18000
H399        H  0.04376234  0.58933081  0.87374167     0.18000
N400        N  0.51328923  0.64805267  0.81450999    -0.88700
H401        H  0.34328406  0.95478970  0.95451967     0.35400
H402        H  0.36039940  0.99887313  0.01353989     0.40500
H403        H  0.49346897  0.63144418  0.77302864     0.40100
H404        H  0.05375688  0.65367575  0.81092743     0.35000
C405        C  0.10473980  0.58087995  0.94910026    -0.26800
C406        C  0.06020819  0.52710731  0.93066746    -0.14800
C407        C  0.07149519  0.50698216  0.87458698     0.35800
C408        C  0.12575848  0.53236163  0.85014975    -0.26200
C409        C  0.16884789  0.58302763  0.87191281    -0.15400
C410        C  0.15798827  0.60851337  0.92131569     0.36900
N411        N  0.19975869  0.66191589  0.94517901    -0.89700
H412        H  0.09892856  0.60292376  0.98563796     0.18000
H413        H  0.13253914  0.51498125  0.80886029     0.18000
N414        N  0.02795820  0.96589998  0.83647293    -0.88700
H415        H  0.18548159  0.68969416  0.93786533     0.35400
H416        H  0.23819067  0.67739620  0.92270452     0.40500
H417        H  0.02817971  0.98426911  0.79559751     0.40100
H418        H  0.03696527  0.93427972  0.82717313     0.35000
C419        C  0.45319143  0.84758172  0.91046631    -0.26800
C420        C  0.40928321  0.83439011  0.87042833    -0.14800
C421        C  0.39209385  0.87345472  0.86143697     0.35800
C422        C  0.41939188  0.92466332  0.89176480    -0.26200
C423        C  0.46390850  0.93968833  0.93403419    -0.15400
C424        C  0.48104126  0.89911605  0.94117548     0.36900
N425        N  0.03029635  0.91146146  0.97451810    -0.89700
H426        H  0.46812914  0.81859999  0.91584230     0.18000
H427        H  0.40706049  0.95330570  0.87672647     0.18000
N428        N  0.34962771  0.86432076  0.81814413    -0.88700
H429        H  0.05936477  0.91046391  0.94456546     0.35400
H430        H  0.01944660  0.87980501  0.00560423     0.40500
H431        H  0.31136919  0.83006982  0.83121087     0.40100
H432        H  0.36129736  0.85625107  0.77581879     0.35000
Fe433      Fe  0.91780289  0.20978893  0.25042366     1.65800
Fe434      Fe  0.79366281  0.20836416  0.24784337     1.73200
Fe435      Fe  0.79373807  0.08737499  0.25281856     1.54400
O436        O  0.83542539  0.08135489  0.17884794    -0.82100
O437        O  0.72965830  0.15304755  0.30464145    -0.80400
O438        O  0.92298190  0.15149959  0.19473271    -0.84600
O439        O  0.92302036  0.17009346  0.32529238    -0.80100
O440        O  0.73001505  0.07896335  0.19555909    -0.81200
O441        O  0.83509520  0.25573175  0.32208360    -0.84000
C442        C  0.89805867  0.11830463  0.33486502     0.96800
C443        C  0.88799698  0.10540616  0.16947416     1.04200
O444        O  0.83521500  0.16856860  0.25046078    -1.13000
O445        O  0.85171584  0.26999723  0.19149623    -0.75400
O446        O  0.92224004  0.25394498  0.17530337    -0.78900
O447        O  0.85169821  0.08379158  0.30955061    -0.79600
C448        C  0.89776149  0.28125274  0.16589592     0.95700
O449        O  0.92274397  0.27321142  0.30624194    -0.77500
O450        O  0.74859108  0.16423721  0.17297119    -0.82700
C451        C  0.71992159  0.11043000  0.33433817     0.98300
C452        C  0.72031934  0.11188140  0.16580690     1.04200
O453        O  0.74831802  0.08640243  0.32736889    -0.78400
C454        C  0.88765228  0.28417040  0.33162766     1.02500
C455        C  0.49869018  0.99895489  0.03974840    -0.02900
C456        C  0.99880444  0.00101381  0.46138747    -0.02900
C457        C  0.95418733  0.10746238  0.09156412    -0.26800
C458        C  0.90979900  0.07676189  0.13099147    -0.14800
C459        C  0.89218087  0.02040256  0.13962111     0.35800
C460        C  0.91904927  0.99620888  0.10894419    -0.26200
C461        C  0.96401091  0.02569034  0.06718946    -0.15400
C462        C  0.98177509  0.08354409  0.06075048     0.36900
N463        N  0.53094157  0.12016321  0.02728918    -0.89700
H464        H  0.96947343  0.15145364  0.08647795     0.18000
H465        H  0.90636798  0.45512466  0.12374290     0.18000
N466        N  0.84987694  0.98726521  0.18304981    -0.88700
H467        H  0.56016690  0.15024160  0.05713805     0.35400
H468        H  0.52005283  0.14085731  0.99604576     0.40500
H469        H  0.81161542  0.98349336  0.17026248     0.40100
H470        H  0.86193631  0.50698460  0.22541020     0.35000
C471        C  0.62595137  0.09547731  0.15012633    -0.26800
C472        C  0.66923361  0.08822045  0.12811069    -0.14800
C473        C  0.65845965  0.05174596  0.07885150     0.35800
C474        C  0.60480051  0.02506927  0.05189747    -0.26200
C475        C  0.56005410  0.03383838  0.07067592    -0.15400
C476        C  0.57113697  0.06506483  0.12686313     0.36900
N477        N  0.52675489  0.05912218  0.16637902    -0.89700
H478        H  0.63336543  0.11996265  0.19125869     0.18000
H479        H  0.59887578  0.99686775  0.01566542     0.18000
N480        N  0.70045209  0.04038098  0.05494369    -0.88700
H481        H  0.54203796  0.08724185  0.20284632     0.35400
H482        H  0.50825133  0.01936043  0.18467707     0.40500
H483        H  0.73885354  0.06359465  0.07746005     0.40100
H484        H  0.70789721  0.05352463  0.01015030     0.35000
C485        C  0.00290000  0.42425428  0.10984483    -0.26800
C486        C  0.97225221  0.43651722  0.06654358    -0.14800
C487        C  0.91560513  0.39078189  0.05568870     0.35800
C488        C  0.89404464  0.33990982  0.08563142    -0.26200
C489        C  0.92566574  0.33074463  0.12732462    -0.15400
C490        C  0.98118941  0.37321232  0.13855197     0.36900
N491        N  0.01603770  0.36730868  0.18212878    -0.89700
H492        H  0.04418382  0.45421977  0.12587519     0.18000
H493        H  0.85058293  0.30772135  0.07787987     0.18000
N494        N  0.87638067  0.39595866  0.01906616    -0.88700
H495        H  0.02187224  0.33450622  0.16843489     0.35400
H496        H  0.99568416  0.35816668  0.22397591     0.40500
H497        H  0.84270641  0.39029415  0.04637043     0.40100
H498        H  0.85980095  0.36330324  0.98734234     0.35000
C499        C  0.89478534  0.05641117  0.41550757    -0.26800
C500        C  0.92594828  0.09628577  0.37297098    -0.14800
C501        C  0.98088832  0.10841501  0.36040523     0.35800
C502        C  0.00299619  0.07940278  0.39005560    -0.26200
C503        C  0.97267175  0.03733752  0.43431920    -0.15400
C504        C  0.91624937  0.02694526  0.44535801     0.36900
N505        N  0.87699677  0.48271641  0.48192944    -0.89700
H506        H  0.85157603  0.04577861  0.42382642     0.18000
H507        H  0.54372936  0.08933058  0.37374372     0.18000
N508        N  0.01324941  0.14804576  0.31451257    -0.88700
H509        H  0.84331837  0.45481711  0.45453248     0.35400
H510        H  0.86044214  0.49890356  0.51355126     0.40500
H511        H  0.99343309  0.13143749  0.27302957     0.40100
H512        H  0.55371978  0.15367487  0.31093294     0.35000
C513        C  0.60471026  0.08088304  0.44909747    -0.26800
C514        C  0.56018074  0.02710929  0.43066439    -0.14800
C515        C  0.57146717  0.00698928  0.37458000     0.35800
C516        C  0.62573007  0.03237087  0.35014208    -0.26200
C517        C  0.66881943  0.08303548  0.37190859    -0.15400
C518        C  0.65795870  0.10851885  0.42131292     0.36900
N519        N  0.69972767  0.16192117  0.44517795    -0.89700
H520        H  0.59889743  0.10292580  0.48563526     0.18000
H521        H  0.63251070  0.01499325  0.30885035     0.18000
N522        N  0.52798731  0.46589173  0.33648020    -0.88700
H523        H  0.68544919  0.18969853  0.43786612     0.35400
H524        H  0.73815988  0.17740352  0.42270324     0.40500
H525        H  0.52820907  0.48425751  0.29560226     0.40100
H526        H  0.53699494  0.43427109  0.32718499     0.35000
C527        C  0.95319116  0.34758030  0.41046404    -0.26800
C528        C  0.90928190  0.33439499  0.37042927    -0.14800
C529        C  0.89210343  0.37346804  0.36143854     0.35800
C530        C  0.91941240  0.42467777  0.39176417    -0.26200
C531        C  0.96392822  0.43969500  0.43403245    -0.15400
C532        C  0.98105072  0.39911503  0.44117216     0.36900
N533        N  0.53030643  0.41145374  0.47450968    -0.89700
H534        H  0.96812183  0.31859286  0.41583844     0.18000
H535        H  0.90708823  0.45332607  0.37672705     0.18000
N536        N  0.84963751  0.36434109  0.31814873    -0.88700
H537        H  0.55936958  0.41045022  0.44455400     0.35400
H538        H  0.51945428  0.37979660  0.50559569     0.40500
H539        H  0.81137638  0.33009486  0.33121833     0.40100
H540        H  0.86130136  0.35626649  0.27582265     0.35000
Fe541      Fe  0.91780217  0.20978864  0.75042317     1.65800
Fe542      Fe  0.79366208  0.20836394  0.74784367     1.73200
Fe543      Fe  0.79373734  0.08737463  0.75281848     1.54400
O544        O  0.83542455  0.08135452  0.67884771    -0.82100
O545        O  0.72965753  0.15304723  0.80464173    -0.80400
O546        O  0.92298102  0.15149970  0.69473131    -0.84600
O547        O  0.92302004  0.17009255  0.82529139    -0.80100
O548        O  0.73001427  0.07896318  0.69555936    -0.81200
O549        O  0.83509465  0.25573137  0.82208392    -0.84000
C550        C  0.89805808  0.11830370  0.83486433     0.96800
C551        C  0.88799603  0.10540608  0.66947309     1.04200
O552        O  0.83521428  0.16856830  0.75046071    -1.13000
O553        O  0.85171496  0.26999728  0.69149652    -0.75400
O554        O  0.92223909  0.25394505  0.67530327    -0.78900
O555        O  0.85169738  0.08379078  0.80955037    -0.79600
C556        C  0.89776056  0.28125285  0.66589606     0.95700
O557        O  0.92274341  0.27321100  0.80624222    -0.77500
O558        O  0.74859025  0.16423703  0.67297151    -0.82700
C559        C  0.71992083  0.11042954  0.83433823     0.98300
C560        C  0.72031846  0.11188122  0.66580738     1.04200
O561        O  0.74831732  0.08640207  0.82736878    -0.78400
C562        C  0.88765175  0.28416993  0.83162812     1.02500
C563        C  0.49868999  0.99895498  0.53974798    -0.02900
C564        C  0.99880402  0.00101324  0.96138794    -0.02900
C565        C  0.95418720  0.10746263  0.59156370    -0.26800
C566        C  0.90979793  0.07676187  0.63098997    -0.14800
C567        C  0.89217904  0.02040222  0.63961860     0.35800
C568        C  0.91904797  0.99620876  0.60894232    -0.26200
C569        C  0.96401058  0.02569051  0.56718873    -0.15400
C570        C  0.98177523  0.08354441  0.56075044     0.36900
N571        N  0.53094283  0.12016385  0.52729058    -0.89700
H572        H  0.96947387  0.15145412  0.58647819     0.18000
H573        H  0.90636593  0.45512430  0.62374038     0.18000
N574        N  0.84987391  0.98726443  0.68304616    -0.88700
H575        H  0.56016756  0.15024168  0.55714009     0.35400
H576        H  0.52005494  0.14085850  0.49604690     0.40500
H577        H  0.81161281  0.98349296  0.67025761     0.40100
H578        H  0.86193188  0.50698249  0.72540659     0.35000
C579        C  0.62595008  0.09547631  0.65012724    -0.26800
C580        C  0.66923268  0.08822014  0.62811128    -0.14800
C581        C  0.65845913  0.05174602  0.57885182     0.35800
C582        C  0.60480015  0.02506936  0.55189755    -0.26200
C583        C  0.56005362  0.03383824  0.57067589    -0.15400
C584        C  0.57113583  0.06506376  0.62686366     0.36900
N585        N  0.52675321  0.05912010  0.66637930    -0.89700
H586        H  0.63336374  0.11996115  0.69125991     0.18000
H587        H  0.59887571  0.99686809  0.51566530     0.18000
N588        N  0.70045158  0.04038115  0.55494384    -0.88700
H589        H  0.54203592  0.08723862  0.70284769     0.35400
H590        H  0.50824909  0.01935779  0.68467585     0.40500
H591        H  0.73885295  0.06359459  0.57746057     0.40100
H592        H  0.70789692  0.05352503  0.51015068     0.35000
C593        C  0.00289933  0.42425426  0.60984462    -0.26800
C594        C  0.97225172  0.43651722  0.56654315    -0.14800
C595        C  0.91560475  0.39078175  0.55568795     0.35800
C596        C  0.89404400  0.33990981  0.58563113    -0.26200
C597        C  0.92566489  0.33074482  0.62732480    -0.15400
C598        C  0.98118860  0.37321242  0.63855210     0.36900
N599        N  0.01603673  0.36730888  0.68212914    -0.89700
H600        H  0.04418329  0.45421963  0.62587483     0.18000
H601        H  0.85058247  0.30772134  0.57787942     0.18000
N602        N  0.87638070  0.39595812  0.51906437    -0.88700
H603        H  0.02187126  0.33450630  0.66843539     0.35400
H604        H  0.99568308  0.35816692  0.72397616     0.40500
H605        H  0.84270586  0.39029338  0.54636790     0.40100
H606        H  0.85980169  0.36330271  0.48734054     0.35000
C607        C  0.89478528  0.05641133  0.91550818    -0.26800
C608        C  0.92594770  0.09628467  0.87297016    -0.14800
C609        C  0.98088696  0.10841232  0.86040284     0.35800
C610        C  0.00299493  0.07940053  0.89005394    -0.26200
C611        C  0.97267115  0.03733670  0.93431921    -0.15400
C612        C  0.91624916  0.02694534  0.94535886     0.36900
N613        N  0.87699709  0.48271756  0.98193168    -0.89700
H614        H  0.85157634  0.04577970  0.92382799     0.18000
H615        H  0.54372755  0.08932735  0.87374127     0.18000
N616        N  0.01324726  0.14804112  0.81450827    -0.88700
H617        H  0.84331798  0.45481786  0.95453551     0.35400
H618        H  0.86044327  0.49890550  0.01355343     0.40500
H619        H  0.99342920  0.13143179  0.77302613     0.40100
H620        H  0.55371699  0.15366899  0.81092728     0.35000
C621        C  0.60470953  0.08088284  0.94909738    -0.26800
C622        C  0.56018027  0.02710875  0.93066484    -0.14800
C623        C  0.57146684  0.00698825  0.87458088     0.35800
C624        C  0.62572980  0.03236982  0.85014303    -0.26200
C625        C  0.66881886  0.08303495  0.87190886    -0.15400
C626        C  0.65795789  0.10851871  0.92131265     0.36900
N627        N  0.69972663  0.16192159  0.94517682    -0.89700
H628        H  0.59889670  0.10292571  0.98563486     0.18000
H629        H  0.63251054  0.01499183  0.80885173     0.18000
N630        N  0.52798717  0.46589037  0.83648129    -0.88700
H631        H  0.68544774  0.18969847  0.93786408     0.35400
H632        H  0.73815887  0.17740382  0.92270241     0.40500
H633        H  0.52820874  0.48425579  0.79560325     0.40100
H634        H  0.53699500  0.43426979  0.82718656     0.35000
C635        C  0.95319092  0.34757969  0.91046453    -0.26800
C636        C  0.90928124  0.33439422  0.87043025    -0.14800
C637        C  0.89210229  0.37346703  0.86144036     0.35800
C638        C  0.91941149  0.42467682  0.89176569    -0.26200
C639        C  0.96392783  0.43969430  0.93403335    -0.15400
C640        C  0.98105049  0.39911438  0.94117276     0.36900
N641        N  0.53030658  0.41145330  0.97450981    -0.89700
H642        H  0.96812197  0.31859248  0.91583826     0.18000
H643        H  0.90708672  0.45332477  0.87672913     0.18000
N644        N  0.84963536  0.36433963  0.81815167    -0.88700
H645        H  0.55936947  0.41044971  0.94455396     0.35400
H646        H  0.51945475  0.37979637  0.00559605     0.40500
H647        H  0.81137461  0.33009335  0.83122218     0.40100
H648        H  0.86129836  0.35626492  0.77582520     0.35000
Fe649      Fe  0.91783042  0.70979962  0.25042000     1.65800
Fe650      Fe  0.79368103  0.70835596  0.24784165     1.73200
Fe651      Fe  0.79377314  0.58737714  0.25282087     1.54400
O652        O  0.83546368  0.58136118  0.17885205    -0.82100
O653        O  0.72967862  0.65303584  0.30463774    -0.80400
O654        O  0.92301720  0.65151418  0.19473010    -0.84600
O655        O  0.92305907  0.67010852  0.32528817    -0.80100
O656        O  0.73004844  0.57895781  0.19555772    -0.81200
O657        O  0.83510733  0.75572159  0.32208322    -0.84000
C658        C  0.89809951  0.61832045  0.33486610     0.96800
C659        C  0.88803511  0.60541679  0.16947681     1.04200
O660        O  0.83524239  0.66856997  0.25046035    -1.13000
O661        O  0.85172688  0.76999311  0.19149714    -0.75400
O662        O  0.92225770  0.75395233  0.17529865    -0.78900
O663        O  0.85173797  0.58380397  0.30955551    -0.79600
C664        C  0.89777191  0.78125377  0.16589321     0.95700
O665        O  0.92276172  0.77321802  0.30623882    -0.77500
O666        O  0.74861857  0.66422903  0.17296674    -0.82700
C667        C  0.71994832  0.61042267  0.33433853     0.98300
C668        C  0.72035122  0.61187335  0.16580239     1.04200
O669        O  0.74834947  0.58639994  0.32737079    -0.78400
C670        C  0.88766398  0.78416795  0.33162596     1.02500
C671        C  0.49871908  0.49895558  0.03975019    -0.02900
C672        C  0.99883236  0.50101816  0.46138934    -0.02900
C673        C  0.95422733  0.60747074  0.09157065    -0.26800
C674        C  0.90983967  0.57677214  0.13099924    -0.14800
C675        C  0.89222361  0.52041408  0.13963475     0.35800
C676        C  0.91908755  0.49621762  0.10895520    -0.26200
C677        C  0.96404605  0.52569588  0.06719592    -0.15400
C678        C  0.98181375  0.58355061  0.06075799     0.36900
N679        N  0.53098173  0.62016843  0.02729789    -0.89700
H680        H  0.96951387  0.65146194  0.08648252     0.18000
H681        H  0.90632821  0.95511459  0.12372775     0.18000
N682        N  0.84992871  0.48728197  0.18307405    -0.88700
H683        H  0.56020757  0.65024544  0.05714741     0.35400
H684        H  0.52009527  0.64086440  0.99605452     0.40500
H685        H  0.81166339  0.48350518  0.17029395     0.40100
H686        H  0.86187706  0.00696137  0.22538987     0.35000
C687        C  0.62598516  0.59547000  0.15012498    -0.26800
C688        C  0.66926496  0.58821074  0.12810758    -0.14800
C689        C  0.65848874  0.55173596  0.07884806     0.35800
C690        C  0.60482776  0.52505927  0.05189681    -0.26200
C691        C  0.56008391  0.53383201  0.07067753    -0.15400
C692        C  0.57117044  0.56505975  0.12686417     0.36900
N693        N  0.52679137  0.55912047  0.16638255    -0.89700
H694        H  0.63340151  0.61995638  0.19125702     0.18000
H695        H  0.59889936  0.49685581  0.01566506     0.18000
N696        N  0.70048089  0.54037229  0.05493651    -0.88700
H697        H  0.54207664  0.58724290  0.20284734     0.35400
H698        H  0.50828873  0.51935992  0.18468363     0.40500
H699        H  0.73888299  0.56358624  0.07745177     0.40100
H700        H  0.70792426  0.55351695  0.01014349     0.35000
C701        C  0.00288362  0.92426521  0.10985107    -0.26800
C702        C  0.97223137  0.93651870  0.06654584    -0.14800
C703        C  0.91558916  0.89077512  0.05568867     0.35800
C704        C  0.89403916  0.83990288  0.08562911    -0.26200
C705        C  0.92566657  0.83074613  0.12732254    -0.15400
C706        C  0.98118391  0.87322379  0.13855579     0.36900
N707        N  0.01603552  0.86733062  0.18213708    -0.89700
H708        H  0.04416277  0.95423773  0.12588690     0.18000
H709        H  0.85058082  0.80770708  0.07787543     0.18000
N710        N  0.87635938  0.89594180  0.01906420    -0.88700
H711        H  0.02188230  0.83453521  0.16844470     0.35400
H712        H  0.99567801  0.85818262  0.22398192     0.40500
H713        H  0.84268120  0.89026901  0.04636677     0.40100
H714        H  0.85978711  0.86328676  0.98733987     0.35000
C715        C  0.89482839  0.55643592  0.41551687    -0.26800
C716        C  0.92599094  0.59630542  0.37297584    -0.14800
C717        C  0.98092902  0.60842883  0.36040828     0.35800
C718        C  0.00303329  0.57941259  0.39005838    -0.26200
C719        C  0.97270720  0.53734997  0.43432431    -0.15400
C720        C  0.91628842  0.52696654  0.44536701     0.36900
N721        N  0.87695953  0.98268998  0.48191648    -0.89700
H722        H  0.85162097  0.54580861  0.42383842     0.18000
H723        H  0.54376392  0.58933384  0.37374397     0.18000
N724        N  0.01329137  0.64805733  0.31451434    -0.88700
H725        H  0.84328470  0.95478892  0.45451670     0.35400
H726        H  0.86039853  0.99887115  0.51353792     0.40500
H727        H  0.99347285  0.63144993  0.27303209     0.40100
H728        H  0.55375972  0.65368158  0.31093318     0.35000
C729        C  0.60474057  0.58088030  0.44910036    -0.26800
C730        C  0.56020860  0.52710796  0.43066698    -0.14800
C731        C  0.57149545  0.50698321  0.37458606     0.35800
C732        C  0.62575868  0.53236268  0.35014875    -0.26200
C733        C  0.66884848  0.58302810  0.37191251    -0.15400
C734        C  0.65798918  0.60851356  0.42131590     0.36900
N735        N  0.69975999  0.66191571  0.44517971    -0.89700
H736        H  0.59892946  0.60292395  0.48563826     0.18000
H737        H  0.63253914  0.51498267  0.30885881     0.18000
N738        N  0.52795832  0.96590160  0.33647161    -0.88700
H739        H  0.68548318  0.68969435  0.43786681     0.35400
H740        H  0.73819181  0.67739606  0.42270487     0.40500
H741        H  0.52818009  0.98427115  0.29559654     0.40100
H742        H  0.53696486  0.93428101  0.32717143     0.35000
C743        C  0.95319168  0.84758230  0.41046583    -0.26800
C744        C  0.90928379  0.83439085  0.37042747    -0.14800
C745        C  0.89209504  0.87345582  0.36143521     0.35800
C746        C  0.91939295  0.92466439  0.39176319    -0.26200
C747        C  0.96390899  0.93968910  0.43403329    -0.15400
C748        C  0.98104153  0.89911671  0.44117481     0.36900
N749        N  0.53029635  0.91146189  0.47451777    -0.89700
H750        H  0.96812906  0.81860045  0.41584235     0.18000
H751        H  0.90706236  0.95330722  0.37672416     0.18000
N752        N  0.84962994  0.86432229  0.31814120    -0.88700
H753        H  0.55936478  0.91046416  0.44456542     0.35400
H754        H  0.51944615  0.87980537  0.50560393     0.40500
H755        H  0.81137104  0.83007139  0.33120706     0.40100
H756        H  0.86130046  0.85625264  0.27581629     0.35000
Fe757      Fe  0.91782981  0.70979929  0.75041961     1.65800
Fe758      Fe  0.79368029  0.70835568  0.74784196     1.73200
Fe759      Fe  0.79377240  0.58737680  0.75282086     1.54400
O760        O  0.83546279  0.58136080  0.67885181    -0.82100
O761        O  0.72967793  0.65303552  0.80463805    -0.80400
O762        O  0.92301634  0.65151410  0.69472902    -0.84600
O763        O  0.92305876  0.67010752  0.82528722    -0.80100
O764        O  0.73004770  0.57895757  0.69555805    -0.81200
O765        O  0.83510671  0.75572124  0.82208359    -0.84000
C766        C  0.89809885  0.61831946  0.83486545     0.96800
C767        C  0.88803414  0.60541667  0.66947583     1.04200
O768        O  0.83524177  0.66856968  0.75046028    -1.13000
O769        O  0.85172598  0.76999297  0.69149727    -0.75400
O770        O  0.92225697  0.75395243  0.67529875    -0.78900
O771        O  0.85173697  0.58380315  0.80955536    -0.79600
C772        C  0.89777105  0.78125379  0.66589335     0.95700
O773        O  0.92276105  0.77321756  0.80623890    -0.77500
O774        O  0.74861757  0.66422874  0.67296724    -0.82700
C775        C  0.71994767  0.61042231  0.83433873     0.98300
C776        C  0.72035029  0.61187307  0.66580291     1.04200
O777        O  0.74834892  0.58639966  0.82737088    -0.78400
C778        C  0.88766334  0.78416740  0.83162638     1.02500
C779        C  0.49871883  0.49895567  0.53974974    -0.02900
C780        C  0.99883206  0.50101760  0.96138984    -0.02900
C781        C  0.95422728  0.60747111  0.59157022    -0.26800
C782        C  0.90983864  0.57677219  0.63099772    -0.14800
C783        C  0.89222174  0.52041377  0.63963214     0.35800
C784        C  0.91908621  0.49621750  0.60895325    -0.26200
C785        C  0.96404569  0.52569610  0.56719516    -0.15400
C786        C  0.98181398  0.58355103  0.56075795     0.36900
N787        N  0.53098288  0.62016899  0.52729927    -0.89700
H788        H  0.96951442  0.65146254  0.58648273     0.18000
H789        H  0.90632629  0.95511410  0.62372546     0.18000
N790        N  0.84992544  0.48728091  0.68306980    -0.88700
H791        H  0.56020810  0.65024546  0.55714954     0.35400
H792        H  0.52009740  0.64086561  0.49605554     0.40500
H793        H  0.81166061  0.48350465  0.67028854     0.40100
H794        H  0.86187303  0.00695988  0.72538646     0.35000
C795        C  0.62598390  0.59546892  0.65012592    -0.26800
C796        C  0.66926406  0.58821032  0.62810821    -0.14800
C797        C  0.65848820  0.55173590  0.57884843     0.35800
C798        C  0.60482745  0.52505936  0.55189680    -0.26200
C799        C  0.56008342  0.53383184  0.57067750    -0.15400
C800        C  0.57116933  0.56505857  0.62686474     0.36900
N801        N  0.52678972  0.55911840  0.66638282    -0.89700
H802        H  0.63339990  0.61995481  0.69125822     0.18000
H803        H  0.59889941  0.49685627  0.51566477     0.18000
N804        N  0.70048036  0.54037207  0.55493722    -0.88700
H805        H  0.54207472  0.58723968  0.70284873     0.35400
H806        H  0.50828641  0.51935729  0.68468245     0.40500
H807        H  0.73888239  0.56358589  0.57745267     0.40100
H808        H  0.70792396  0.55351668  0.51014419     0.35000
C809        C  0.00288300  0.92426523  0.60985095    -0.26800
C810        C  0.97223098  0.93651874  0.56654540    -0.14800
C811        C  0.91558887  0.89077506  0.55568795     0.35800
C812        C  0.89403862  0.83990297  0.58562886    -0.26200
C813        C  0.92566581  0.83074625  0.62732265    -0.15400
C814        C  0.98118316  0.87322390  0.63855590     0.36900
N815        N  0.01603500  0.86733059  0.68213674    -0.89700
H816        H  0.04416228  0.95423767  0.62588674     0.18000
H817        H  0.85058034  0.80770717  0.57787495     0.18000
N818        N  0.87635946  0.89594133  0.51906242    -0.88700
H819        H  0.02188142  0.83453508  0.66844444     0.35400
H820        H  0.99567769  0.85818287  0.72398192     0.40500
H821        H  0.84268074  0.89026840  0.54636421     0.40100
H822        H  0.85978786  0.86328626  0.48733814     0.35000
C823        C  0.89482840  0.55643609  0.91551752    -0.26800
C824        C  0.92599031  0.59630419  0.87297492    -0.14800
C825        C  0.98092771  0.60842616  0.86040589     0.35800
C826        C  0.00303216  0.57941046  0.89005683    -0.26200
C827        C  0.97270676  0.53734924  0.93432434    -0.15400
C828        C  0.91628834  0.52696664  0.94536784     0.36900
N829        N  0.87695950  0.98269101  0.98191863    -0.89700
H830        H  0.85162138  0.54580978  0.92384017     0.18000
H831        H  0.54376222  0.58933078  0.87374175     0.18000
N832        N  0.01328921  0.64805267  0.81450996    -0.88700
H833        H  0.84328410  0.95478967  0.95451965     0.35400
H834        H  0.86039946  0.99887313  0.01353992     0.40500
H835        H  0.99346891  0.63144414  0.77302864     0.40100
H836        H  0.55375687  0.65367566  0.81092746     0.35000
C837        C  0.60473984  0.58087996  0.94910024    -0.26800
C838        C  0.56020819  0.52710733  0.93066744    -0.14800
C839        C  0.57149523  0.50698216  0.87458699     0.35800
C840        C  0.62575853  0.53236162  0.85014976    -0.26200
C841        C  0.66884795  0.58302763  0.87191281    -0.15400
C842        C  0.65798833  0.60851337  0.92131569     0.36900
N843        N  0.69975875  0.66191589  0.94517901    -0.89700
H844        H  0.59892863  0.60292378  0.98563794     0.18000
H845        H  0.63253920  0.51498125  0.80886030     0.18000
N846        N  0.52795808  0.96590018  0.83647287    -0.88700
H847        H  0.68548166  0.68969416  0.93786533     0.35400
H848        H  0.73819074  0.67739620  0.92270453     0.40500
H849        H  0.52817968  0.98426929  0.79559747     0.40100
H850        H  0.53696490  0.93427967  0.82717312     0.35000
C851        C  0.95319147  0.84758171  0.91046628    -0.26800
C852        C  0.90928322  0.83439010  0.87042835    -0.14800
C853        C  0.89209390  0.87345474  0.86143697     0.35800
C854        C  0.91939194  0.92466333  0.89176478    -0.26200
C855        C  0.96390854  0.93968834  0.93403417    -0.15400
C856        C  0.98104129  0.89911605  0.94117547     0.36900
N857        N  0.53029645  0.91146148  0.97451795    -0.89700
H858        H  0.96812917  0.81859998  0.91584229     0.18000
H859        H  0.90706055  0.95330571  0.87672647     0.18000
N860        N  0.84962777  0.86432078  0.81814413    -0.88700
H861        H  0.55936477  0.91046390  0.94456536     0.35400
H862        H  0.51944667  0.87980505  0.00560415     0.40500
H863        H  0.81136924  0.83006987  0.83121088     0.40100
H864        H  0.86129742  0.85625108  0.77581879     0.35000
loop_ 
_geom_bond_atom_site_label_1 
_geom_bond_atom_site_label_2 
_geom_bond_distance 
_geom_bond_site_symmetry_2 
_ccdc_geom_bond_type 
Fe1          O17   2.087       .  S
Fe1           O7   2.055       .  S
Fe1          O14   2.053       .  S
Fe1           O6   2.084       .  S
Fe1          O12   1.960       .  S
Fe2           O5   2.085       .  S
Fe2           O9   2.044       .  S
Fe2          O13   2.080       .  S
Fe2          O18   2.054       .  S
Fe2          O12   1.956       .  S
Fe3          O21   2.055       .  S
Fe3           O8   2.085       .  S
Fe3          O15   2.081       .  S
Fe3           O4   2.045       .  S
Fe3          O12   1.954       .  S
O4           C11   1.266       .  A
O5           C19   1.272       .  A
O6           C11   1.274       .  A
O7           C10   1.267       .  A
O8           C20   1.272       .  A
O9           C22   1.266       .  A
C10          O15   1.272       .  A
C10          C68   1.477       .  S
C11          C26   1.475       .  S
O13          C16   1.272       .  A
O14          C16   1.266       .  A
C16          C57   1.477       .  S
O17          C22   1.275       .  A
O18          C20   1.267       .  A
C19          O21   1.267       .  A
C19          C85   1.473       .  S
C20          C40   1.473       .  S
C22          C96   1.475       .  S
C23          C43   1.612   1_665  S
C23         C461   1.590   1_565  S
C23         C702   1.631       .  S
C23         C564   1.737   1_564  S
C24          C71   1.633       .  S
C24         C514   1.612       .  S
C24         C315   1.589   1_545  S
C24         C563   1.737   1_545  S
C25          C26   1.392       .  A
C25          C30   1.405       .  A
C25          H32   1.084       .  S
C26          C27   1.407       .  A
C27          C28   1.394   1_545  A
C27          N34   1.435   1_545  S
C28          C29   1.428   1_565  A
C28         H249   1.071       .  S
C29         C455   1.590   1_545  S
C29          C30   1.439       .  A
C30         N463   1.426       .  S
N31         C462   1.426   1_455  S
N31          H35   1.046       .  S
N31          H36   1.046   1_554  S
H33         C244   1.071       .  S
N34          H37   1.045       .  S
N34         H254   1.046   1_565  S
H38         N250   1.046       .  S
C39          C40   1.388       .  A
C39          C44   1.401       .  A
C39          H46   1.085       .  S
C40          C41   1.405       .  A
C41          C42   1.406       .  A
C41          N48   1.439       .  S
C42          C43   1.429       .  A
C42          H47   1.067   1_545  S
C43          C44   1.449       .  A
C44          N45   1.438       .  S
N45          H49   1.046       .  S
N45          H50   1.046       .  S
N48          H51   1.044       .  S
N48          H52   1.046       .  S
C53          C54   1.436       .  A
C53          C58   1.397       .  A
C53          H60   1.073       .  S
C54         C671   1.631       .  S
C54          C55   1.448       .  A
C55          C56   1.406       .  A
C55          N62   1.421       .  S
C56          C57   1.386       .  A
C56          H61   1.085       .  S
C57          C58   1.401       .  A
C58          N59   1.434       .  S
N59          H63   1.045       .  S
N59          H64   1.045       .  S
N62          H65   1.047       .  S
N62          H66   1.046   1_554  S
C67          C68   1.385       .  A
C67          C72   1.406       .  A
C67          H74   1.085       .  S
C68          C69   1.399       .  A
C69          C70   1.406       .  A
C69          N76   1.441       .  S
C70          C71   1.438       .  A
C70         H507   1.071       .  S
C71          C72   1.447       .  A
C72         N289   1.420   1_545  S
N73         C288   1.420       .  S
N73          H77   1.047       .  S
N73          H78   1.046       .  S
H75         C502   1.071       .  S
N76          H79   1.046       .  S
N76         H512   1.045       .  S
H80         N508   1.045       .  S
C81          C82   1.430       .  A
C81          C86   1.407       .  A
C81          H88   1.067       .  S
C82         C456   1.612   1_455  S
C82          C83   1.449       .  A
C83          C84   1.398       .  A
C83         N306   1.433   1_545  S
C84          C85   1.387       .  A
C84          H89   1.086       .  S
C85          C86   1.405       .  A
C86          N87   1.438       .  S
N87          H91   1.046       .  S
N87          H92   1.044       .  S
N90         C299   1.433       .  S
N90          H93   1.046       .  S
N90          H94   1.046       .  S
C95          C96   1.392       .  A
C95         C100   1.405       .  A
C95         H102   1.084       .  S
C96          C97   1.407       .  A
C97          C98   1.394       .  A
C97         N104   1.434       .  S
C98          C99   1.427       .  A
C98         H103   1.072       .  S
C99         C240   1.589       .  S
C99         C100   1.440       .  A
C100        N533   1.427       .  S
N101        C532   1.427   1_455  S
N101        H105   1.046       .  S
N101        H106   1.046       .  S
N104        H107   1.045       .  S
N104        H108   1.046       .  S
Fe109       O125   2.087       .  S
Fe109       O115   2.055       .  S
Fe109       O122   2.053       .  S
Fe109       O114   2.084       .  S
Fe109       O120   1.960       .  S
Fe110       O113   2.085       .  S
Fe110       O117   2.044       .  S
Fe110       O121   2.080       .  S
Fe110       O126   2.054       .  S
Fe110       O120   1.956       .  S
Fe111       O129   2.055       .  S
Fe111       O116   2.085       .  S
Fe111       O123   2.081       .  S
Fe111       O112   2.045       .  S
Fe111       O120   1.954       .  S
O112        C119   1.266       .  A
O113        C127   1.272       .  A
O114        C119   1.274       .  A
O115        C118   1.267       .  A
O116        C128   1.272       .  A
O117        C130   1.266       .  A
C118        O123   1.272       .  A
C118        C176   1.477       .  S
C119        C134   1.475       .  S
O121        C124   1.272       .  A
O122        C124   1.266       .  A
C124        C165   1.477       .  S
O125        C130   1.275       .  A
O126        C128   1.267       .  A
C127        O129   1.267       .  A
C127        C193   1.473       .  S
C128        C148   1.473       .  S
C130        C204   1.475       .  S
C131        C569   1.590   1_565  S
C131        C151   1.612   1_665  S
C131        C810   1.631       .  S
C131        C456   1.737   1_565  S
C132        C179   1.633       .  S
C132        C622   1.612       .  S
C132        C423   1.589   1_545  S
C132        C455   1.737   1_546  S
C133        C134   1.392       .  A
C133        C138   1.405       .  A
C133        H140   1.084       .  S
C134        C135   1.407       .  A
C135        C136   1.394   1_545  A
C135        N142   1.435   1_545  S
C136        C137   1.428   1_565  A
C136        H357   1.071       .  S
C137        C563   1.590   1_545  S
C137        C138   1.439       .  A
C138        N571   1.426       .  S
N139        C570   1.426   1_455  S
N139        H143   1.046       .  S
N139        H144   1.046       .  S
H141        C352   1.071       .  S
N142        H145   1.045       .  S
N142        H362   1.046   1_565  S
H146        N358   1.046       .  S
C147        C148   1.388       .  A
C147        C152   1.401       .  A
C147        H154   1.085       .  S
C148        C149   1.405       .  A
C149        C150   1.406       .  A
C149        N156   1.439       .  S
C150        C151   1.429       .  A
C150        H155   1.067   1_545  S
C151        C152   1.449       .  A
C152        N153   1.438       .  S
N153        H157   1.046       .  S
N153        H158   1.046       .  S
N156        H159   1.044       .  S
N156        H160   1.046       .  S
C161        C162   1.436       .  A
C161        C166   1.397       .  A
C161        H168   1.073       .  S
C162        C779   1.631       .  S
C162        C163   1.448       .  A
C163        C164   1.406       .  A
C163        N170   1.421       .  S
C164        C165   1.386       .  A
C164        H169   1.085       .  S
C165        C166   1.401       .  A
C166        N167   1.434       .  S
N167        H171   1.045       .  S
N167        H172   1.045       .  S
N170        H173   1.047       .  S
N170        H174   1.046       .  S
C175        C176   1.385       .  A
C175        C180   1.406       .  A
C175        H182   1.085       .  S
C176        C177   1.399       .  A
C177        C178   1.406       .  A
C177        N184   1.441       .  S
C178        C179   1.438       .  A
C178        H615   1.071       .  S
C179        C180   1.447       .  A
C180        N397   1.420   1_545  S
N181        C396   1.420       .  S
N181        H185   1.047       .  S
N181        H186   1.046   1_556  S
H183        C610   1.071       .  S
N184        H187   1.046       .  S
N184        H620   1.045       .  S
H188        N616   1.045       .  S
C189        C190   1.430       .  A
C189        C194   1.407       .  A
C189        H196   1.067       .  S
C190        C564   1.612   1_455  S
C190        C191   1.449       .  A
C191        C192   1.398       .  A
C191        N414   1.433   1_545  S
C192        C193   1.387       .  A
C192        H197   1.086       .  S
C193        C194   1.405       .  A
C194        N195   1.438       .  S
N195        H199   1.046       .  S
N195        H200   1.044       .  S
N198        C407   1.433       .  S
N198        H201   1.046       .  S
N198        H202   1.046       .  S
C203        C204   1.392       .  A
C203        C208   1.405       .  A
C203        H210   1.084       .  S
C204        C205   1.407       .  A
C205        C206   1.394       .  A
C205        N212   1.434       .  S
C206        C207   1.427       .  A
C206        H211   1.072       .  S
C207        C348   1.589       .  S
C207        C208   1.440       .  A
C208        N641   1.427       .  S
N209        C640   1.427   1_455  S
N209        H213   1.046       .  S
N209        H214   1.046   1_556  S
N212        H215   1.045       .  S
N212        H216   1.046       .  S
Fe217       O233   2.087       .  S
Fe217       O223   2.055       .  S
Fe217       O230   2.053       .  S
Fe217       O222   2.084       .  S
Fe217       O228   1.960       .  S
Fe218       O221   2.085       .  S
Fe218       O225   2.044       .  S
Fe218       O229   2.080       .  S
Fe218       O234   2.054       .  S
Fe218       O228   1.956       .  S
Fe219       O237   2.055       .  S
Fe219       O224   2.085       .  S
Fe219       O231   2.081       .  S
Fe219       O220   2.045       .  S
Fe219       O228   1.954       .  S
O220        C227   1.266       .  A
O221        C235   1.272       .  A
O222        C227   1.274       .  A
O223        C226   1.267       .  A
O224        C236   1.272       .  A
O225        C238   1.266       .  A
C226        O231   1.272       .  A
C226        C284   1.477       .  S
C227        C242   1.475       .  S
O229        C232   1.272       .  A
O230        C232   1.266       .  A
C232        C273   1.477       .  S
O233        C238   1.275       .  A
O234        C236   1.267       .  A
C235        O237   1.267       .  A
C235        C301   1.473       .  S
C236        C256   1.473       .  S
C238        C312   1.475       .  S
C239        C677   1.590       .  S
C239        C259   1.612   1_655  S
C239        C486   1.631       .  S
C239        C780   1.737   1_554  S
C240        C287   1.633       .  S
C240        C730   1.612       .  S
C240        C779   1.737       .  S
C241        C242   1.392       .  A
C241        C246   1.405       .  A
C241        H248   1.084       .  S
C242        C243   1.407       .  A
C243        C244   1.394       .  A
C243        N250   1.435       .  S
C244        C245   1.428       .  A
C245        C671   1.590       .  S
C245        C246   1.439       .  A
C246        N679   1.426       .  S
N247        C678   1.426   1_455  S
N247        H251   1.046       .  S
N247        H252   1.046   1_554  S
N250        H253   1.045       .  S
C255        C256   1.388       .  A
C255        C260   1.401       .  A
C255        H262   1.085       .  S
C256        C257   1.405       .  A
C257        C258   1.406       .  A
C257        N264   1.439       .  S
C258        C259   1.429       .  A
C258        H263   1.067       .  S
C259        C260   1.449       .  A
C260        N261   1.438       .  S
N261        H265   1.046       .  S
N261        H266   1.046       .  S
N264        H267   1.044       .  S
N264        H268   1.046       .  S
C269        C270   1.436       .  A
C269        C274   1.397       .  A
C269        H276   1.073       .  S
C270        C455   1.631       .  S
C270        C271   1.448       .  A
C271        C272   1.406       .  A
C271        N278   1.421       .  S
C272        C273   1.386       .  A
C272        H277   1.085       .  S
C273        C274   1.401       .  A
C274        N275   1.434       .  S
N275        H279   1.045       .  S
N275        H280   1.045       .  S
N278        H281   1.047       .  S
N278        H282   1.046   1_554  S
C283        C284   1.385       .  A
C283        C288   1.406       .  A
C283        H290   1.085       .  S
C284        C285   1.399       .  A
C285        C286   1.406       .  A
C285        N292   1.441       .  S
C286        C287   1.438       .  A
C286        H723   1.071       .  S
C287        C288   1.447       .  A
N289        H293   1.047       .  S
N289        H294   1.046       .  S
H291        C718   1.071       .  S
N292        H295   1.046       .  S
N292        H728   1.045       .  S
H296        N724   1.045       .  S
C297        C298   1.430       .  A
C297        C302   1.407       .  A
C297        H304   1.067       .  S
C298        C672   1.612   1_455  S
C298        C299   1.449       .  A
C299        C300   1.398       .  A
C300        C301   1.387       .  A
C300        H305   1.086       .  S
C301        C302   1.405       .  A
C302        N303   1.438       .  S
N303        H307   1.046       .  S
N303        H308   1.044       .  S
N306        H309   1.046       .  S
N306        H310   1.046       .  S
C311        C312   1.392       .  A
C311        C316   1.405       .  A
C311        H318   1.084       .  S
C312        C313   1.407       .  A
C313        C314   1.394       .  A
C313        N320   1.434       .  S
C314        C315   1.427       .  A
C314        H319   1.072       .  S
C315        C316   1.440       .  A
C316        N749   1.427       .  S
N317        C748   1.427   1_455  S
N317        H321   1.046       .  S
N317        H322   1.046       .  S
N320        H323   1.045       .  S
N320        H324   1.046       .  S
Fe325       O341   2.087       .  S
Fe325       O331   2.055       .  S
Fe325       O338   2.053       .  S
Fe325       O330   2.084       .  S
Fe325       O336   1.960       .  S
Fe326       O329   2.085       .  S
Fe326       O333   2.044       .  S
Fe326       O337   2.080       .  S
Fe326       O342   2.054       .  S
Fe326       O336   1.956       .  S
Fe327       O345   2.055       .  S
Fe327       O332   2.085       .  S
Fe327       O339   2.081       .  S
Fe327       O328   2.045       .  S
Fe327       O336   1.954       .  S
O328        C335   1.266       .  A
O329        C343   1.272       .  A
O330        C335   1.274       .  A
O331        C334   1.267       .  A
O332        C344   1.272       .  A
O333        C346   1.266       .  A
C334        O339   1.272       .  A
C334        C392   1.477       .  S
C335        C350   1.475       .  S
O337        C340   1.272       .  A
O338        C340   1.266       .  A
C340        C381   1.477       .  S
O341        C346   1.275       .  A
O342        C344   1.267       .  A
C343        O345   1.267       .  A
C343        C409   1.473       .  S
C344        C364   1.473       .  S
C346        C420   1.475       .  S
C347        C785   1.590       .  S
C347        C367   1.612   1_655  S
C347        C594   1.631       .  S
C347        C672   1.737       .  S
C348        C395   1.633       .  S
C348        C838   1.612       .  S
C348        C671   1.737   1_556  S
C349        C350   1.392       .  A
C349        C354   1.405       .  A
C349        H356   1.084       .  S
C350        C351   1.407       .  A
C351        C352   1.394       .  A
C351        N358   1.435       .  S
C352        C353   1.428       .  A
C353        C779   1.590       .  S
C353        C354   1.439       .  A
C354        N787   1.426       .  S
N355        C786   1.426   1_455  S
N355        H359   1.046       .  S
N355        H360   1.046       .  S
N358        H361   1.045       .  S
C363        C364   1.388       .  A
C363        C368   1.401       .  A
C363        H370   1.085       .  S
C364        C365   1.405       .  A
C365        C366   1.406       .  A
C365        N372   1.439       .  S
C366        C367   1.429       .  A
C366        H371   1.067       .  S
C367        C368   1.449       .  A
C368        N369   1.438       .  S
N369        H373   1.046       .  S
N369        H374   1.046       .  S
N372        H375   1.044       .  S
N372        H376   1.046       .  S
C377        C378   1.436       .  A
C377        C382   1.397       .  A
C377        H384   1.073       .  S
C378        C563   1.631       .  S
C378        C379   1.448       .  A
C379        C380   1.406       .  A
C379        N386   1.421       .  S
C380        C381   1.386       .  A
C380        H385   1.085       .  S
C381        C382   1.401       .  A
C382        N383   1.434       .  S
N383        H387   1.045       .  S
N383        H388   1.045       .  S
N386        H389   1.047       .  S
N386        H390   1.046       .  S
C391        C392   1.385       .  A
C391        C396   1.406       .  A
C391        H398   1.085       .  S
C392        C393   1.399       .  A
C393        C394   1.406       .  A
C393        N400   1.441       .  S
C394        C395   1.438       .  A
C394        H831   1.071       .  S
C395        C396   1.447       .  A
N397        H401   1.047       .  S
N397        H402   1.046   1_556  S
H399        C826   1.071       .  S
N400        H403   1.046       .  S
N400        H836   1.045       .  S
H404        N832   1.045       .  S
C405        C406   1.430       .  A
C405        C410   1.407       .  A
C405        H412   1.067       .  S
C406        C780   1.612   1_455  S
C406        C407   1.449       .  A
C407        C408   1.398       .  A
C408        C409   1.387       .  A
C408        H413   1.086       .  S
C409        C410   1.405       .  A
C410        N411   1.438       .  S
N411        H415   1.046       .  S
N411        H416   1.044       .  S
N414        H417   1.046       .  S
N414        H418   1.046       .  S
C419        C420   1.392       .  A
C419        C424   1.405       .  A
C419        H426   1.084       .  S
C420        C421   1.407       .  A
C421        C422   1.394       .  A
C421        N428   1.434       .  S
C422        C423   1.427       .  A
C422        H427   1.072       .  S
C423        C424   1.440       .  A
C424        N857   1.427       .  S
N425        C856   1.427   1_455  S
N425        H429   1.046       .  S
N425        H430   1.046   1_556  S
N428        H431   1.045       .  S
N428        H432   1.046       .  S
Fe433       O449   2.087       .  S
Fe433       O439   2.055       .  S
Fe433       O446   2.053       .  S
Fe433       O438   2.084       .  S
Fe433       O444   1.960       .  S
Fe434       O437   2.085       .  S
Fe434       O441   2.044       .  S
Fe434       O445   2.080       .  S
Fe434       O450   2.054       .  S
Fe434       O444   1.956       .  S
Fe435       O453   2.055       .  S
Fe435       O440   2.085       .  S
Fe435       O447   2.081       .  S
Fe435       O436   2.045       .  S
Fe435       O444   1.954       .  S
O436        C443   1.266       .  A
O437        C451   1.272       .  A
O438        C443   1.274       .  A
O439        C442   1.267       .  A
O440        C452   1.272       .  A
O441        C454   1.266       .  A
C442        O447   1.272       .  A
C442        C500   1.477       .  S
C443        C458   1.475       .  S
O445        C448   1.272       .  A
O446        C448   1.266       .  A
C448        C489   1.477       .  S
O449        C454   1.275       .  A
O450        C452   1.267       .  A
C451        O453   1.267       .  A
C451        C517   1.473       .  S
C452        C472   1.473       .  S
C454        C528   1.475       .  S
C455        C475   1.612   1_565  S
C456        C503   1.633       .  S
C456        C747   1.589   1_545  S
C457        C458   1.392       .  A
C457        C462   1.405       .  A
C457        H464   1.084       .  S
C458        C459   1.407       .  A
C459        C460   1.394   1_545  A
C459        N466   1.435   1_545  S
C460        C461   1.428   1_565  A
C460        H681   1.071       .  S
C461        C462   1.439       .  A
N463        H467   1.046       .  S
N463        H468   1.046   1_554  S
H465        C676   1.071       .  S
N466        H469   1.045       .  S
N466        H686   1.046   1_565  S
H470        N682   1.046       .  S
C471        C472   1.388       .  A
C471        C476   1.401       .  A
C471        H478   1.085       .  S
C472        C473   1.405       .  A
C473        C474   1.406       .  A
C473        N480   1.439       .  S
C474        C475   1.429       .  A
C474        H479   1.067   1_545  S
C475        C476   1.449       .  A
C476        N477   1.438       .  S
N477        H481   1.046       .  S
N477        H482   1.046       .  S
N480        H483   1.044       .  S
N480        H484   1.046       .  S
C485        C486   1.436   1_455  A
C485        C490   1.397   1_455  A
C485        H492   1.073       .  S
C486        C487   1.448       .  A
C487        C488   1.406       .  A
C487        N494   1.421       .  S
C488        C489   1.386       .  A
C488        H493   1.085       .  S
C489        C490   1.401       .  A
C490        N491   1.434   1_655  S
N491        H495   1.045       .  S
N491        H496   1.045   1_455  S
N494        H497   1.047       .  S
N494        H498   1.046   1_554  S
C499        C500   1.385       .  A
C499        C504   1.406       .  A
C499        H506   1.085       .  S
C500        C501   1.399       .  A
C501        C502   1.406   1_655  A
C501        N508   1.441   1_655  S
C502        C503   1.438   1_455  A
C503        C504   1.447       .  A
C504        N721   1.420   1_545  S
N505        C720   1.420       .  S
N505        H509   1.047       .  S
N505        H510   1.046       .  S
N508        H511   1.046   1_455  S
C513        C514   1.430       .  A
C513        C518   1.407       .  A
C513        H520   1.067       .  S
C514        C515   1.449       .  A
C515        C516   1.398       .  A
C515        N738   1.433   1_545  S
C516        C517   1.387       .  A
C516        H521   1.086       .  S
C517        C518   1.405       .  A
C518        N519   1.438       .  S
N519        H523   1.046       .  S
N519        H524   1.044       .  S
N522        C731   1.433       .  S
N522        H525   1.046       .  S
N522        H526   1.046       .  S
C527        C528   1.392       .  A
C527        C532   1.405       .  A
C527        H534   1.084       .  S
C528        C529   1.407       .  A
C529        C530   1.394       .  A
C529        N536   1.434       .  S
C530        C531   1.427       .  A
C530        H535   1.072       .  S
C531        C672   1.589       .  S
C531        C532   1.440       .  A
N533        H537   1.046       .  S
N533        H538   1.046       .  S
N536        H539   1.045       .  S
N536        H540   1.046       .  S
Fe541       O557   2.087       .  S
Fe541       O547   2.055       .  S
Fe541       O554   2.053       .  S
Fe541       O546   2.084       .  S
Fe541       O552   1.960       .  S
Fe542       O545   2.085       .  S
Fe542       O549   2.044       .  S
Fe542       O553   2.080       .  S
Fe542       O558   2.054       .  S
Fe542       O552   1.956       .  S
Fe543       O561   2.055       .  S
Fe543       O548   2.085       .  S
Fe543       O555   2.081       .  S
Fe543       O544   2.045       .  S
Fe543       O552   1.954       .  S
O544        C551   1.266       .  A
O545        C559   1.272       .  A
O546        C551   1.274       .  A
O547        C550   1.267       .  A
O548        C560   1.272       .  A
O549        C562   1.266       .  A
C550        O555   1.272       .  A
C550        C608   1.477       .  S
C551        C566   1.475       .  S
O553        C556   1.272       .  A
O554        C556   1.266       .  A
C556        C597   1.477       .  S
O557        C562   1.275       .  A
O558        C560   1.267       .  A
C559        O561   1.267       .  A
C559        C625   1.473       .  S
C560        C580   1.473       .  S
C562        C636   1.475       .  S
C563        C583   1.612   1_565  S
C564        C611   1.633       .  S
C564        C855   1.589   1_545  S
C565        C566   1.392       .  A
C565        C570   1.405       .  A
C565        H572   1.084       .  S
C566        C567   1.407       .  A
C567        C568   1.394   1_545  A
C567        N574   1.435   1_545  S
C568        C569   1.428   1_565  A
C568        H789   1.071       .  S
C569        C570   1.439       .  A
N571        H575   1.046       .  S
N571        H576   1.046       .  S
H573        C784   1.071       .  S
N574        H577   1.045       .  S
N574        H794   1.046   1_565  S
H578        N790   1.046       .  S
C579        C580   1.388       .  A
C579        C584   1.401       .  A
C579        H586   1.085       .  S
C580        C581   1.405       .  A
C581        C582   1.406       .  A
C581        N588   1.439       .  S
C582        C583   1.429       .  A
C582        H587   1.067   1_545  S
C583        C584   1.449       .  A
C584        N585   1.438       .  S
N585        H589   1.046       .  S
N585        H590   1.046       .  S
N588        H591   1.044       .  S
N588        H592   1.046       .  S
C593        C594   1.436   1_455  A
C593        C598   1.397   1_455  A
C593        H600   1.073       .  S
C594        C595   1.448       .  A
C595        C596   1.406       .  A
C595        N602   1.421       .  S
C596        C597   1.386       .  A
C596        H601   1.085       .  S
C597        C598   1.401       .  A
C598        N599   1.434   1_655  S
N599        H603   1.045       .  S
N599        H604   1.045   1_455  S
N602        H605   1.047       .  S
N602        H606   1.046       .  S
C607        C608   1.385       .  A
C607        C612   1.406       .  A
C607        H614   1.085       .  S
C608        C609   1.399       .  A
C609        C610   1.406   1_655  A
C609        N616   1.441   1_655  S
C610        C611   1.438   1_455  A
C611        C612   1.447       .  A
C612        N829   1.420   1_545  S
N613        C828   1.420       .  S
N613        H617   1.047       .  S
N613        H618   1.046   1_556  S
N616        H619   1.046   1_455  S
C621        C622   1.430       .  A
C621        C626   1.407       .  A
C621        H628   1.067       .  S
C622        C623   1.449       .  A
C623        C624   1.398       .  A
C623        N846   1.433   1_545  S
C624        C625   1.387       .  A
C624        H629   1.086       .  S
C625        C626   1.405       .  A
C626        N627   1.438       .  S
N627        H631   1.046       .  S
N627        H632   1.044       .  S
N630        C839   1.433       .  S
N630        H633   1.046       .  S
N630        H634   1.046       .  S
C635        C636   1.392       .  A
C635        C640   1.405       .  A
C635        H642   1.084       .  S
C636        C637   1.407       .  A
C637        C638   1.394       .  A
C637        N644   1.434       .  S
C638        C639   1.427       .  A
C638        H643   1.072       .  S
C639        C780   1.589       .  S
C639        C640   1.440       .  A
N641        H645   1.046       .  S
N641        H646   1.046   1_556  S
N644        H647   1.045       .  S
N644        H648   1.046       .  S
Fe649       O665   2.087       .  S
Fe649       O655   2.055       .  S
Fe649       O662   2.053       .  S
Fe649       O654   2.084       .  S
Fe649       O660   1.960       .  S
Fe650       O653   2.085       .  S
Fe650       O657   2.044       .  S
Fe650       O661   2.080       .  S
Fe650       O666   2.054       .  S
Fe650       O660   1.956       .  S
Fe651       O669   2.055       .  S
Fe651       O656   2.085       .  S
Fe651       O663   2.081       .  S
Fe651       O652   2.045       .  S
Fe651       O660   1.954       .  S
O652        C659   1.266       .  A
O653        C667   1.272       .  A
O654        C659   1.274       .  A
O655        C658   1.267       .  A
O656        C668   1.272       .  A
O657        C670   1.266       .  A
C658        O663   1.272       .  A
C658        C716   1.477       .  S
C659        C674   1.475       .  S
O661        C664   1.272       .  A
O662        C664   1.266       .  A
C664        C705   1.477       .  S
O665        C670   1.275       .  A
O666        C668   1.267       .  A
C667        O669   1.267       .  A
C667        C733   1.473       .  S
C668        C688   1.473       .  S
C670        C744   1.475       .  S
C671        C691   1.612       .  S
C672        C719   1.633       .  S
C673        C674   1.392       .  A
C673        C678   1.405       .  A
C673        H680   1.084       .  S
C674        C675   1.407       .  A
C675        C676   1.394       .  A
C675        N682   1.435       .  S
C676        C677   1.428       .  A
C677        C678   1.439       .  A
N679        H683   1.046       .  S
N679        H684   1.046   1_554  S
N682        H685   1.045       .  S
C687        C688   1.388       .  A
C687        C692   1.401       .  A
C687        H694   1.085       .  S
C688        C689   1.405       .  A
C689        C690   1.406       .  A
C689        N696   1.439       .  S
C690        C691   1.429       .  A
C690        H695   1.067       .  S
C691        C692   1.449       .  A
C692        N693   1.438       .  S
N693        H697   1.046       .  S
N693        H698   1.046       .  S
N696        H699   1.044       .  S
N696        H700   1.046       .  S
C701        C702   1.436   1_455  A
C701        C706   1.397   1_455  A
C701        H708   1.073       .  S
C702        C703   1.448       .  A
C703        C704   1.406       .  A
C703        N710   1.421       .  S
C704        C705   1.386       .  A
C704        H709   1.085       .  S
C705        C706   1.401       .  A
C706        N707   1.434   1_655  S
N707        H711   1.045       .  S
N707        H712   1.045   1_455  S
N710        H713   1.047       .  S
N710        H714   1.046   1_554  S
C715        C716   1.385       .  A
C715        C720   1.406       .  A
C715        H722   1.085       .  S
C716        C717   1.399       .  A
C717        C718   1.406   1_655  A
C717        N724   1.441   1_655  S
C718        C719   1.438   1_455  A
C719        C720   1.447       .  A
N721        H725   1.047       .  S
N721        H726   1.046       .  S
N724        H727   1.046   1_455  S
C729        C730   1.430       .  A
C729        C734   1.407       .  A
C729        H736   1.067       .  S
C730        C731   1.449       .  A
C731        C732   1.398       .  A
C732        C733   1.387       .  A
C732        H737   1.086       .  S
C733        C734   1.405       .  A
C734        N735   1.438       .  S
N735        H739   1.046       .  S
N735        H740   1.044       .  S
N738        H741   1.046       .  S
N738        H742   1.046       .  S
C743        C744   1.392       .  A
C743        C748   1.405       .  A
C743        H750   1.084       .  S
C744        C745   1.407       .  A
C745        C746   1.394       .  A
C745        N752   1.434       .  S
C746        C747   1.427       .  A
C746        H751   1.072       .  S
C747        C748   1.440       .  A
N749        H753   1.046       .  S
N749        H754   1.046       .  S
N752        H755   1.045       .  S
N752        H756   1.046       .  S
Fe757       O773   2.087       .  S
Fe757       O763   2.055       .  S
Fe757       O770   2.053       .  S
Fe757       O762   2.084       .  S
Fe757       O768   1.960       .  S
Fe758       O761   2.085       .  S
Fe758       O765   2.044       .  S
Fe758       O769   2.080       .  S
Fe758       O774   2.054       .  S
Fe758       O768   1.956       .  S
Fe759       O777   2.055       .  S
Fe759       O764   2.085       .  S
Fe759       O771   2.081       .  S
Fe759       O760   2.045       .  S
Fe759       O768   1.954       .  S
O760        C767   1.266       .  A
O761        C775   1.272       .  A
O762        C767   1.274       .  A
O763        C766   1.267       .  A
O764        C776   1.272       .  A
O765        C778   1.266       .  A
C766        O771   1.272       .  A
C766        C824   1.477       .  S
C767        C782   1.475       .  S
O769        C772   1.272       .  A
O770        C772   1.266       .  A
C772        C813   1.477       .  S
O773        C778   1.275       .  A
O774        C776   1.267       .  A
C775        O777   1.267       .  A
C775        C841   1.473       .  S
C776        C796   1.473       .  S
C778        C852   1.475       .  S
C779        C799   1.612       .  S
C780        C827   1.633       .  S
C781        C782   1.392       .  A
C781        C786   1.405       .  A
C781        H788   1.084       .  S
C782        C783   1.407       .  A
C783        C784   1.394       .  A
C783        N790   1.435       .  S
C784        C785   1.428       .  A
C785        C786   1.439       .  A
N787        H791   1.046       .  S
N787        H792   1.046       .  S
N790        H793   1.045       .  S
C795        C796   1.388       .  A
C795        C800   1.401       .  A
C795        H802   1.085       .  S
C796        C797   1.405       .  A
C797        C798   1.406       .  A
C797        N804   1.439       .  S
C798        C799   1.429       .  A
C798        H803   1.067       .  S
C799        C800   1.449       .  A
C800        N801   1.438       .  S
N801        H805   1.046       .  S
N801        H806   1.046       .  S
N804        H807   1.044       .  S
N804        H808   1.046       .  S
C809        C810   1.436   1_455  A
C809        C814   1.397   1_455  A
C809        H816   1.073       .  S
C810        C811   1.448       .  A
C811        C812   1.406       .  A
C811        N818   1.421       .  S
C812        C813   1.386       .  A
C812        H817   1.085       .  S
C813        C814   1.401       .  A
C814        N815   1.434   1_655  S
N815        H819   1.045       .  S
N815        H820   1.045   1_455  S
N818        H821   1.047       .  S
N818        H822   1.046       .  S
C823        C824   1.385       .  A
C823        C828   1.406       .  A
C823        H830   1.085       .  S
C824        C825   1.399       .  A
C825        C826   1.406   1_655  A
C825        N832   1.441   1_655  S
C826        C827   1.438   1_455  A
C827        C828   1.447       .  A
N829        H833   1.047       .  S
N829        H834   1.046   1_556  S
N832        H835   1.046   1_455  S
C837        C838   1.430       .  A
C837        C842   1.407       .  A
C837        H844   1.067       .  S
C838        C839   1.449       .  A
C839        C840   1.398       .  A
C840        C841   1.387       .  A
C840        H845   1.086       .  S
C841        C842   1.405       .  A
C842        N843   1.438       .  S
N843        H847   1.046       .  S
N843        H848   1.044       .  S
N846        H849   1.046       .  S
N846        H850   1.046       .  S
C851        C852   1.392       .  A
C851        C856   1.405       .  A
C851        H858   1.084       .  S
C852        C853   1.407       .  A
C853        C854   1.394       .  A
C853        N860   1.434       .  S
C854        C855   1.427       .  A
C854        H859   1.072       .  S
C855        C856   1.440       .  A
N857        H861   1.046       .  S
N857        H862   1.046   1_556  S
N860        H863   1.045       .  S
N860        H864   1.046       .  S
