geometry optimzed in LAMMPS
_audit_creation_date              2020-12-01 
_audit_creation_method            'lammps2cif' 
_symmetry_space_group_name_H-M    'P1' 
_symmetry_Int_Tables_number       1 
_symmetry_cell_setting            triclinic 
loop_ 
_symmetry_equiv_pos_as_xyz 
  x,y,z 
_cell_length_a                    34.12552587 
_cell_length_b                    33.951579595123995 
_cell_length_c                    75.60029303742547 
_cell_angle_alpha                 89.16149157397855 
_cell_angle_beta                  90.85160222758971 
_cell_angle_gamma                 122.03062951529616 
loop_ 
_atom_site_label 
_atom_site_type_symbol 
_atom_site_fract_x 
_atom_site_fract_y 
_atom_site_fract_z 
_atom_site_charge 
C1          C  0.25234023  0.11545739  0.34919867     0.03100
C2          C  0.27931716  0.15442250  0.33833588    -0.13100
C3          C  0.25910926  0.17498637  0.32876948     0.00600
C4          C  0.21164770  0.15701166  0.33067794    -0.11600
C5          C  0.18460366  0.11890148  0.34189668     0.03100
C6          C  0.20504861  0.09798815  0.35102910    -0.11000
H7          H  0.31593202  0.16803918  0.33699977     0.08700
H8          H  0.19528413  0.17138815  0.32281829     0.06200
H9          H  0.18414296  0.06782444  0.35937011     0.06000
O10         O  0.38859307  0.05112464  0.37727376    -0.57900
C11         C  0.39159286  0.97006865  0.43160803     0.74700
O12         O  0.47433650  0.04483877  0.37731684    -0.59000
C13         C  0.35555255  0.04862540  0.38568353     0.74700
C14         C  0.48481372  0.12383020  0.41948162     0.77100
Cd15       Cd  0.42403559  0.03556356  0.40258951     1.37500
O16         O  0.36518983  0.96602987  0.41890793    -0.57900
O17         O  0.44254392  0.10790014  0.41646955    -0.56700
C18         C  0.45756945  0.00176575  0.37533471     0.77100
O19         O  0.50026801  0.09948080  0.41408371    -0.59100
O20         O  0.43313824  0.00352195  0.43038316    -0.57500
O21         O  0.35316260  0.03797869  0.40187892    -0.57500
O22         O  0.42661978  0.97492341  0.38618029    -0.56700
C23         C  0.58574556  0.33324988  0.48766912     0.03100
C24         C  0.63346081  0.36375413  0.48565036    -0.13100
C25         C  0.65833802  0.35425557  0.47374146     0.00600
C26         C  0.63504205  0.31381756  0.46353370    -0.11600
C27         C  0.58692102  0.28335677  0.46503390     0.03100
C28         C  0.56238691  0.29336993  0.47711555    -0.11000
H29         H  0.65154802  0.39451017  0.49381005     0.08700
H30         H  0.65409321  0.30663849  0.45413091     0.06200
H31         H  0.52528957  0.27023187  0.47828868     0.06000
C32         C  0.78355971  0.39860561  0.47306148     0.80200
N33         N  0.80205686  0.44510054  0.47457991    -0.78200
C34         C  0.77407872  0.46234894  0.47496618     0.82600
N35         N  0.72753795  0.43274615  0.47408621    -0.78100
C36         C  0.70878776  0.38625216  0.47265487     0.82700
N37         N  0.73690789  0.36929962  0.47227881    -0.79800
C38         C  0.00764668  0.91098672  0.32717561     0.03100
C39         C  0.03663526  0.95931089  0.32902240    -0.13100
C40         C  0.02629110  0.98361541  0.34101288     0.00600
C41         C  0.98573792  0.95935513  0.35104276    -0.11600
C42         C  0.95601361  0.91091819  0.34930365     0.03100
C43         C  0.96734938  0.88704592  0.33738626    -0.11000
H44         H  0.06701234  0.97830690  0.32080542     0.08700
H45         H  0.97779855  0.97791745  0.36043027     0.06200
H46         H  0.94466312  0.84975028  0.33603298     0.06000
O47         O  0.65680301  0.69022769  0.38450226    -0.57900
C48         C  0.72295401  0.68150288  0.43138385     0.74700
O49         O  0.76924919  0.81840052  0.39877598    -0.59000
C50         C  0.63337535  0.70889766  0.38221130     0.74700
C51         C  0.66927814  0.77361361  0.43661505     0.77100
Cd52       Cd  0.70425485  0.74109762  0.40969924     1.37500
O53         O  0.69672215  0.66590468  0.41788877    -0.57900
O54         O  0.65121000  0.73083662  0.43338349    -0.56700
C55         C  0.79083126  0.80221995  0.39143196     0.77100
O56         O  0.70427537  0.80172729  0.42746922    -0.59100
O57         O  0.73940913  0.72378592  0.43493092    -0.57500
O58         O  0.64204422  0.74115057  0.39270274    -0.57500
O59         O  0.77225511  0.75875043  0.39243965    -0.56700
C60         C  0.79240660  0.58242113  0.47066545     0.03100
C61         C  0.77371018  0.53453066  0.46871196    -0.13100
C62         C  0.79361334  0.51248935  0.47746053     0.00600
C63         C  0.83084579  0.53805544  0.48916460    -0.11600
C64         C  0.84759461  0.58504359  0.49239121     0.03100
C65         C  0.82900870  0.60730965  0.48280143    -0.11000
H66         H  0.74410619  0.51451500  0.46007485     0.08700
H67         H  0.84534202  0.52088137  0.49642471     0.06200
H68         H  0.84306392  0.64399551  0.48483222     0.06000
C69         C  0.00851436  0.16252556  0.32185593     0.03100
C70         C  0.02327235  0.13199689  0.32578298    -0.13100
C71         C  0.05463598  0.14133357  0.33961408     0.00600
C72         C  0.07093578  0.18146801  0.34983989    -0.11600
C73         C  0.05539143  0.21186239  0.34631471     0.03100
C74         C  0.02421428  0.20206102  0.33224661    -0.11000
H75         H  0.01116682  0.10143293  0.31770857     0.08700
H76         H  0.09471351  0.18839288  0.36072032     0.06200
H77         H  0.01180790  0.22503815  0.32946286     0.06000
O78         O  0.18719110  0.46140668  0.42617418    -0.57900
C79         C  0.10330442  0.37317698  0.38828111     0.74700
O80         O  0.05673808  0.46027590  0.41211109    -0.59000
C81         C  0.19418642  0.49669399  0.43457510     0.74700
C82         C  0.16937330  0.53102339  0.37915671     0.77100
Cd83       Cd  0.12767792  0.45861993  0.40602797     1.37500
O84         O  0.14029250  0.39568392  0.39722155    -0.57900
O85         O  0.19282532  0.52060915  0.38898784    -0.56700
C86         C  0.04670239  0.43648604  0.42626158     0.77100
O87         O  0.12617774  0.50809994  0.38162860    -0.59100
O88         O  0.07843263  0.39044532  0.38746489    -0.57500
O89         O  0.17106607  0.51419162  0.42950818    -0.57500
O90         O  0.07351172  0.42290689  0.43074434    -0.56700
C91         C  0.83281685  0.33028019  0.49180725     0.03100
C92         C  0.87192429  0.34625475  0.48114212    -0.13100
C93         C  0.88204786  0.37870413  0.46738601     0.00600
C94         C  0.85346946  0.39668263  0.46490290    -0.11600
C95         C  0.81326793  0.37945042  0.47496916     0.03100
C96         C  0.80237529  0.34517681  0.48787601    -0.11000
H97         H  0.89487579  0.33379744  0.48366894     0.08700
H98         H  0.86219089  0.42358741  0.45506818     0.06200
H99         H  0.77103765  0.33163130  0.49548200     0.06000
C100        C  0.07182117  0.11010353  0.34243177     0.80200
N101        N  0.11803005  0.12798229  0.34268181    -0.78200
C102        C  0.13456535  0.09937980  0.34308970     0.82600
N103        N  0.10457454  0.05263168  0.34301868    -0.78100
C104        C  0.05821430  0.03431353  0.34274031     0.82700
N105        N  0.04192916  0.06318933  0.34228449    -0.79800
C106        C  0.58456317  0.83584988  0.48570097     0.03100
C107        C  0.53749876  0.80514300  0.48912657    -0.13100
C108        C  0.51476926  0.81612995  0.50151792     0.00600
C109        C  0.53933304  0.85807008  0.51073621    -0.11600
C110        C  0.58672165  0.88907996  0.50772967     0.03100
C111        C  0.60910280  0.87778940  0.49506418    -0.11000
H112        H  0.51840545  0.77269057  0.48197327     0.08700
H113        H  0.52196765  0.86553049  0.52081001     0.06200
H114        H  0.64584081  0.90093089  0.49287644     0.06000
O115        O  0.80852708  0.17820604  0.55322229    -0.57900
C116        C  0.81441818  0.09999147  0.59420015     0.74700
O117        O  0.69284386  0.12366277  0.59507282    -0.56600
C118        C  0.78585817  0.19673948  0.54901721     0.74700
C119        C  0.69385878  0.04343612  0.55531320     0.77100
Cd120      Cd  0.75385556  0.12501459  0.57641697     1.37500
O121        O  0.82958469  0.14089589  0.58849273    -0.57900
O122        O  0.73741683  0.06578605  0.55442635    -0.56700
C123        C  0.72035040  0.15382229  0.60607703     0.77100
O124        O  0.67688630  0.05853896  0.56611842    -0.59100
O125        O  0.77158820  0.07139288  0.59187655    -0.57500
O126        O  0.75007457  0.18405500  0.55798321    -0.57500
O127        O  0.76273638  0.16932751  0.60356442    -0.56700
C128        C  0.92771813  0.05072998  0.63565408     0.03100
C129        C  0.97486788  0.06867891  0.63265226    -0.13100
C130        C  0.99869312  0.05247407  0.64261266     0.00600
C131        C  0.97489669  0.01768860  0.65549827    -0.11600
C132        C  0.92798460  0.99984149  0.65890352     0.03100
C133        C  0.90490369  0.01704748  0.64902485    -0.11000
H134        H  0.99273663  0.09450155  0.62235414     0.08700
H135        H  0.99318077  0.00503115  0.66314841     0.06200
H136        H  0.86900665  0.00431886  0.65175941     0.06000
C137        C  0.38598712  0.58857550  0.51267707     0.03100
C138        C  0.35137529  0.56324170  0.49989669    -0.13100
C139        C  0.33229848  0.58454653  0.49000771     0.00600
C140        C  0.34732236  0.63101786  0.49327248    -0.11600
C141        C  0.38248169  0.65692284  0.50561743     0.03100
C142        C  0.40209427  0.63574914  0.51520746    -0.11000
H143        H  0.33927466  0.52705321  0.49768746     0.08700
H144        H  0.33311640  0.64775145  0.48550536     0.06200
H145        H  0.42990574  0.65591296  0.52456393     0.06000
O146        O  0.55554678  0.48441329  0.58420940    -0.57900
C147        C  0.45937810  0.49148825  0.55028227     0.74700
O148        O  0.47201649  0.36633517  0.54958809    -0.59000
C149        C  0.54754609  0.45999399  0.59806196     0.74700
C150        C  0.39328713  0.36734323  0.58683009     0.77100
Cd151      Cd  0.47984840  0.42891964  0.56911317     1.37500
O152        O  0.47780700  0.50129632  0.56555024    -0.57900
O153        O  0.40915274  0.41021620  0.58451237    -0.56700
C154        C  0.50973044  0.39220947  0.54157696     0.77100
O155        O  0.41653447  0.35202713  0.58022248    -0.59100
O156        O  0.45128823  0.45374874  0.54379149    -0.57500
O157        O  0.50907689  0.42194347  0.59821002    -0.57500
O158        O  0.53405160  0.43369264  0.54687620    -0.56700
C159        C  0.17663945  0.26314898  0.65064029     0.03100
C160        C  0.21626332  0.28594761  0.64006826    -0.13100
C161        C  0.22569683  0.26083390  0.62798862     0.00600
C162        C  0.19612622  0.21207714  0.62731250    -0.11600
C163        C  0.15597467  0.18913508  0.63769237     0.03100
C164        C  0.14620392  0.21511376  0.64901883    -0.11000
H165        H  0.23969382  0.32318398  0.64123754     0.08700
H166        H  0.20361450  0.19227119  0.61838496     0.06200
H167        H  0.11574737  0.19758750  0.65727277     0.06000
C168        C  0.34164773  0.84089008  0.49008769     0.03100
C169        C  0.36932962  0.82205140  0.49194797    -0.13100
C170        C  0.35941719  0.78779745  0.50472525     0.00600
C171        C  0.32101706  0.77187328  0.51571068    -0.11600
C172        C  0.29271429  0.79035253  0.51392904     0.03100
C173        C  0.30314226  0.82466738  0.50098626    -0.11000
H174        H  0.39854537  0.83385102  0.48323862     0.08700
H175        H  0.31397192  0.74622508  0.52590866     0.06200
H176        H  0.28159605  0.83916522  0.49953618     0.06000
O177        O  0.98840841  0.70588869  0.55763452    -0.57900
C178        C  0.07623507  0.79698727  0.59618838     0.74700
O179        O  0.05098750  0.65435585  0.59587076    -0.59000
C180        C  0.98715932  0.67618718  0.54730534     0.74700
C181        C  0.13818666  0.74132431  0.55912648     0.77100
Cd182      Cd  0.05307507  0.71444806  0.57641571     1.37500
O183        O  0.05573649  0.78795064  0.58132970    -0.57900
O184        O  0.11998112  0.76544338  0.55820958    -0.56700
C185        C  0.01230466  0.64200743  0.60258130     0.77100
O186        O  0.11762497  0.70483336  0.56855262    -0.59100
O187        O  0.08573815  0.76778524  0.60195135    -0.57500
O188        O  0.01558238  0.66398458  0.55068779    -0.57500
O189        O  0.99300600  0.66315038  0.59718987    -0.56700
C190        C  0.18212572  0.01549487  0.65948327     0.03100
C191        C  0.16317178  0.97349102  0.65031432    -0.13100
C192        C  0.12750743  0.96022418  0.63778992     0.00600
C193        C  0.11120705  0.99001092  0.63439871    -0.11600
C194        C  0.13074036  0.03271896  0.64317933     0.03100
C195        C  0.16603571  0.04513618  0.65571690    -0.11000
H196        H  0.17658162  0.95128775  0.65285285     0.08700
H197        H  0.08358005  0.98012161  0.62483444     0.06200
H198        H  0.17979894  0.07710111  0.66304320     0.06000
C199        C  0.11237826  0.06305379  0.64028718     0.80200
N200        N  0.06609232  0.04461052  0.64110947    -0.78200
C201        C  0.04864005  0.07240270  0.64003481     0.82600
N202        N  0.07795644  0.11908884  0.63831262    -0.78100
C203        C  0.12443190  0.13804726  0.63746042     0.82700
N204        N  0.14155539  0.10989995  0.63863162    -0.79800
C205        C  0.39013158  0.76981312  0.50639944     0.80200
N206        N  0.43646661  0.79976362  0.50502240    -0.78200
C207        C  0.46527295  0.78370901  0.50466246     0.82600
N208        N  0.44759065  0.73729972  0.50552078    -0.78100
C209        C  0.40134237  0.70702754  0.50698584     0.82700
N210        N  0.37252885  0.72334660  0.50721006    -0.79800
C211        C  0.92139445  0.45049796  0.68005493     0.03100
C212        C  0.87398134  0.43263231  0.68249750    -0.13100
C213        C  0.85163228  0.45051900  0.67251957     0.00600
C214        C  0.87645621  0.48516962  0.65984328    -0.11600
C215        C  0.92328032  0.50243075  0.65704454     0.03100
C216        C  0.94537289  0.48441814  0.66690838    -0.11000
H217        H  0.85496622  0.40596420  0.69241604     0.08700
H218        H  0.85909994  0.49834790  0.65187885     0.06200
H219        H  0.98162504  0.49770218  0.66466978     0.06000
O220        O  0.01315887  0.35165175  0.72604949    -0.57900
C221        C  0.05865929  0.29587372  0.76352927     0.74700
O222        O  0.15048376  0.37408904  0.71581770    -0.59000
C223        C  0.02942702  0.39000325  0.71785904     0.74700
C224        C  0.14525125  0.44801700  0.75763855     0.77100
Cd225      Cd  0.08941849  0.36647135  0.73600883     1.37500
O226        O  0.03025494  0.30279774  0.75529991    -0.57900
O227        O  0.10196691  0.42892557  0.75591554    -0.56700
C228        C  0.12315472  0.34038416  0.70599771     0.77100
O229        O  0.16346743  0.43022804  0.74893617    -0.59100
O230        O  0.10016536  0.32004566  0.75853475    -0.57500
O231        O  0.07296586  0.41708316  0.71824744    -0.57500
O232        O  0.08103202  0.31846209  0.71028225    -0.56700
C233        C  0.24927725  0.66289149  0.82406820     0.03100
C234        C  0.29658420  0.69399954  0.82127684    -0.13100
C235        C  0.32080050  0.68375534  0.80928060     0.00600
C236        C  0.29685621  0.64254987  0.79944929    -0.11600
C237        C  0.24875932  0.61218325  0.80135294     0.03100
C238        C  0.22547665  0.62197434  0.81412047    -0.11000
H239        H  0.31492965  0.72556129  0.82898759     0.08700
H240        H  0.31532778  0.63490950  0.78993149     0.06200
H241        H  0.18874561  0.59821004  0.81610155     0.06000
C242        C  0.45684570  0.91326997  0.80369321     0.03100
C243        C  0.43891201  0.86580413  0.80071303    -0.13100
C244        C  0.45679456  0.84253968  0.81002768     0.00600
C245        C  0.49317409  0.86719339  0.82213678    -0.11600
C246        C  0.51051729  0.91412538  0.82572097     0.03100
C247        C  0.49178400  0.93676459  0.81653886    -0.11000
H248        H  0.41185885  0.84729594  0.79091619     0.08700
H249        H  0.50712753  0.84932323  0.82926887     0.06200
H250        H  0.50422092  0.97273413  0.81940171     0.06000
O251        O  0.36665744  0.00688338  0.75364059    -0.57900
C252        C  0.31170965  0.05951423  0.71744920     0.74700
O253        O  0.37905193  0.14187856  0.76515942    -0.59000
C254        C  0.40419395  0.02321469  0.76226023     0.74700
C255        C  0.46236707  0.14252362  0.72550762     0.77100
Cd256      Cd  0.37957685  0.08424878  0.74528815     1.37500
O257        O  0.31567113  0.02901356  0.72570170    -0.57900
O258        O  0.43107659  0.10247726  0.72040895    -0.56700
C259        C  0.34342632  0.11215516  0.77359163     0.77100
O260        O  0.45547321  0.15646520  0.73993245    -0.59100
O261        O  0.33919889  0.10121306  0.72205534    -0.57500
O262        O  0.42946500  0.06697953  0.76301976    -0.57500
O263        O  0.32487097  0.07051850  0.76870548    -0.56700
C264        C  0.67326192  0.24387276  0.65947963     0.03100
C265        C  0.70238656  0.29248055  0.66049150    -0.13100
C266        C  0.69252595  0.31830136  0.67195729     0.00600
C267        C  0.65252218  0.29540457  0.68224831    -0.11600
C268        C  0.62284413  0.24699070  0.68131478     0.03100
C269        C  0.63329097  0.22141313  0.66992728    -0.11000
H270        H  0.73273361  0.31038762  0.65221616     0.08700
H271        H  0.64479477  0.31506696  0.69117223     0.06200
H272        H  0.61058275  0.18395768  0.66940500     0.06000
C273        C  0.49617519  0.65918790  0.82680118     0.03100
C274        C  0.46718127  0.67655019  0.82430691    -0.13100
C275        C  0.47651939  0.70977791  0.81108965     0.00600
C276        C  0.51521681  0.72574173  0.80024499    -0.11600
C277        C  0.54360958  0.70749248  0.80217530     0.03100
C278        C  0.53446105  0.67495824  0.81573402    -0.11000
H279        H  0.43781663  0.66484341  0.83291902     0.08700
H280        H  0.52236520  0.75117711  0.78994010     0.06200
H281        H  0.55675811  0.66140225  0.81749443     0.06000
O282        O  0.72825960  0.80295812  0.75112609    -0.57900
C283        C  0.83605563  0.86504565  0.71583503     0.74700
O284        O  0.85238652  0.79660750  0.76163035    -0.59000
C285        C  0.70414598  0.76408928  0.75888155     0.74700
C286        C  0.77914934  0.71214735  0.72204859     0.77100
Cd287      Cd  0.79102725  0.79078037  0.74195434     1.37500
O288        O  0.79239056  0.83897930  0.71651053    -0.57900
O289        O  0.77090115  0.74158092  0.71554453    -0.56700
C290        C  0.85515509  0.82780581  0.77152135     0.77100
O291        O  0.79218446  0.71812739  0.73809647    -0.59100
O292        O  0.85835497  0.85735441  0.72741477    -0.57500
O293        O  0.71839345  0.73662982  0.75770188    -0.57500
O294        O  0.82740895  0.84086538  0.76796654    -0.56700
C295        C  0.67630761  0.50089183  0.65646127     0.03100
C296        C  0.69534926  0.54092434  0.66688509    -0.13100
C297        C  0.72838864  0.54974817  0.68013322     0.00600
C298        C  0.74370911  0.51868680  0.68237179    -0.11600
C299        C  0.72447184  0.47810567  0.67211419     0.03100
C300        C  0.69079107  0.46954299  0.65926965    -0.11000
H301        H  0.68364642  0.56478162  0.66493499     0.08700
H302        H  0.76998954  0.52574791  0.69222844     0.06200
H303        H  0.67670305  0.43899996  0.65103897     0.06000
C304        C  0.74063657  0.44545946  0.67399739     0.80200
N305        N  0.70989237  0.39867775  0.67343375    -0.78200
C306        C  0.72516545  0.36886809  0.67349997     0.82600
N307        N  0.77124291  0.38598589  0.67393455    -0.78100
C308        C  0.80207140  0.43241374  0.67448428     0.82700
N309        N  0.78666778  0.46207517  0.67436727    -0.79800
C310        C  0.44613179  0.72814857  0.80890393     0.80200
N311        N  0.39945631  0.69869615  0.80854627    -0.78200
C312        C  0.37127551  0.71567629  0.80773390     0.82600
N313        N  0.39005250  0.76244502  0.80762297    -0.78100
C314        C  0.43668442  0.79213361  0.80797862     0.82700
N315        N  0.46453956  0.77474514  0.80872322    -0.79800
C316        C  0.59672288  0.37825302  0.96959746     0.03100
C317        C  0.57232633  0.34090515  0.98148315    -0.13100
C318        C  0.59522186  0.32360310  0.99131741     0.00600
C319        C  0.64220557  0.34182361  0.98843318    -0.11600
C320        C  0.66717076  0.37938183  0.97681059     0.03100
C321        C  0.64462904  0.39836074  0.96776964    -0.11000
H322        H  0.53557080  0.32564954  0.98329759     0.08700
H323        H  0.65989281  0.32832268  0.99598690     0.06200
H324        H  0.66420112  0.42833799  0.95920746     0.06000
O325        O  0.48561720  0.52582223  0.89343499    -0.57900
C326        C  0.48889815  0.43982666  0.93222811     0.74700
O327        O  0.37110280  0.46375467  0.93133304    -0.59000
C328        C  0.45576694  0.53020853  0.88498453     0.74700
C329        C  0.36877847  0.37643089  0.89262236     0.77100
Cd330      Cd  0.42838466  0.46050869  0.91248475     1.37500
O331        O  0.50183539  0.46340215  0.91800691    -0.57900
O332        O  0.41088713  0.40426378  0.88899750    -0.56700
C333        C  0.40085074  0.50005874  0.93950710     0.77100
O334        O  0.35399097  0.38579082  0.90621803    -0.59100
O335        O  0.44814257  0.42553439  0.93708059    -0.57500
O336        O  0.41413895  0.50287411  0.88943824    -0.57500
O337        O  0.44238089  0.51829315  0.93474954    -0.56700
C338        C  0.25802630  0.21226003  0.84965703     0.03100
C339        C  0.20960279  0.18408492  0.85091650    -0.13100
C340        C  0.18468610  0.14328292  0.84094608     0.00600
C341        C  0.20806444  0.13218377  0.82884399    -0.11600
C342        C  0.25594454  0.16162810  0.82651765     0.03100
C343        C  0.28083516  0.20093974  0.83727589    -0.11000
H344        H  0.19145343  0.19327319  0.85997433     0.08700
H345        H  0.18873588  0.10137056  0.82078397     0.06200
H346        H  0.31808000  0.22253283  0.83609396     0.06000
C347        C  0.85006222  0.34094149  0.99239975     0.03100
C348        C  0.83278160  0.30129328  0.98186006    -0.13100
C349        C  0.79812458  0.29040150  0.96911091     0.00600
C350        C  0.78073513  0.31961440  0.96701427    -0.11600
C351        C  0.79945788  0.36053401  0.97689277     0.03100
C352        C  0.83413213  0.37101450  0.98945597    -0.11000
H353        H  0.84619231  0.27882569  0.98361227     0.08700
H354        H  0.75308268  0.31076634  0.95758869     0.06200
H355        H  0.84736106  0.40170837  0.99754709     0.06000
O356        O  0.71282242  0.11287363  0.91466211    -0.57900
C357        C  0.64647579  0.00161402  0.88206127     0.74700
O358        O  0.77804340  0.02976226  0.89879224    -0.59000
C359        C  0.73638467  0.12394989  0.92885734     0.74700
C360        C  0.68244473  0.97898846  0.93838604     0.77100
Cd361      Cd  0.71754176  0.04360447  0.90918230     1.37500
O362        O  0.66717145  0.04461222  0.88526844    -0.57900
O363        O  0.66169654  0.99814995  0.93232896    -0.56700
C364        C  0.80144673  0.06826462  0.89075811     0.77100
O365        O  0.71961865  0.98941381  0.93075478    -0.59100
O366        O  0.65860621  0.97852579  0.89131824    -0.57500
O367        O  0.75156955  0.09858114  0.93361312    -0.57500
O368        O  0.78678627  0.09536553  0.89182812    -0.56700
C369        C  0.01324838  0.17352729  0.82423981     0.03100
C370        C  0.97454463  0.15862741  0.83497861    -0.13100
C371        C  0.96494226  0.12717740  0.84903831     0.00600
C372        C  0.99317390  0.10892453  0.85167863    -0.11600
C373        C  0.03174426  0.12347526  0.84094536     0.03100
C374        C  0.04167860  0.15583289  0.82735581    -0.11000
H375        H  0.95217835  0.17182322  0.83249778     0.08700
H376        H  0.98561356  0.08406014  0.86226392     0.06200
H377        H  0.07089813  0.16628267  0.81880295     0.06000
C378        C  0.06065888  0.10353324  0.84317093     0.80200
N379        N  0.10742708  0.13145316  0.84247373    -0.78200
C380        C  0.13414302  0.11281282  0.84275565     0.82600
N381        N  0.11377479  0.06584438  0.84347767    -0.78100
C382        C  0.06696694  0.03768975  0.84420218     0.82700
N383        N  0.04059779  0.05674555  0.84393796    -0.79800
C384        C  0.84381312  0.58872443  0.99179816     0.03100
C385        C  0.88311325  0.61299031  0.98111256    -0.13100
C386        C  0.89342110  0.58917835  0.96881100     0.00600
C387        C  0.86393195  0.54091656  0.96707613    -0.11600
C388        C  0.82397989  0.51657013  0.97735407     0.03100
C389        C  0.81398761  0.54064343  0.98958254    -0.11000
H390        H  0.90554203  0.65035297  0.98229085     0.08700
H391        H  0.87187961  0.52247452  0.95762754     0.06200
H392        H  0.78344217  0.52171607  0.99773553     0.06000
O393        O  0.20566692  0.80978374  0.92319569    -0.57900
C394        C  0.11022715  0.81237575  0.88769767     0.74700
O395        O  0.13740957  0.69210767  0.88750577    -0.59000
C396        C  0.20749977  0.77875817  0.93208347     0.74700
C397        C  0.05372713  0.69609688  0.92477999     0.77100
Cd398      Cd  0.13708292  0.75327139  0.90503998     1.37500
O399        O  0.13512396  0.82569187  0.90157901    -0.57900
O400        O  0.08649563  0.73478234  0.93029985    -0.56700
C401        C  0.16958678  0.72012705  0.87725332     0.77100
O402        O  0.05934921  0.68294918  0.90995086    -0.59100
O403        O  0.09992310  0.77345370  0.88168802    -0.57500
O404        O  0.17884523  0.73722931  0.92767165    -0.57500
O405        O  0.18704760  0.76295293  0.88016648    -0.56700
C406        C  0.04225055  0.91530192  0.85032904     0.03100
C407        C  0.06240584  0.96343627  0.85238172    -0.13100
C408        C  0.04457891  0.98681579  0.84310002     0.00600
C409        C  0.00658423  0.96181682  0.83165891    -0.11600
C410        C  0.98656147  0.91399058  0.82929577     0.03100
C411        C  0.00399914  0.89080776  0.83889973    -0.11000
H412        H  0.09224997  0.98270312  0.86098758     0.08700
H413        H  0.99397770  0.97999048  0.82388282     0.06200
H414        H  0.98841188  0.85377554  0.83714735     0.06000
C415        C  0.78105677  0.39102263  0.97513894     0.80200
N416        N  0.81008675  0.43798058  0.97556719    -0.78200
C417        C  0.79280056  0.46597694  0.97563690     0.82600
N418        N  0.74634173  0.44683712  0.97554209    -0.78100
C419        C  0.71720999  0.40002812  0.97512271     0.82700
N420        N  0.73469958  0.37224328  0.97503005    -0.79800
C421        C  0.71473029  0.24629679  0.18304800     0.03100
C422        C  0.73451707  0.29431309  0.18458349    -0.13100
C423        C  0.71574205  0.31655228  0.17526887     0.00600
C424        C  0.67807227  0.29085515  0.16379657    -0.11600
C425        C  0.65863996  0.24292631  0.16175817     0.03100
C426        C  0.67685348  0.22082081  0.17161397    -0.11000
H427        H  0.76467459  0.31437995  0.19296995     0.08700
H428        H  0.66540364  0.30860598  0.15579618     0.06200
H429        H  0.66203920  0.18381090  0.17015558     0.06000
O430        O  0.73568202  0.01283702  0.24268818    -0.57900
C431        C  0.85058580  0.05848482  0.21066229     0.74700
O432        O  0.81354366  0.16111758  0.23216738    -0.59000
C433        C  0.72612091  0.02800193  0.25612554     0.74700
C434        C  0.87523154  0.11306630  0.26523797     0.77100
Cd435      Cd  0.81002852  0.08685105  0.23681886     1.37500
O436        O  0.80847362  0.03267310  0.21489068    -0.57900
O437        O  0.84675657  0.07100561  0.26132583    -0.56700
C438        C  0.78909073  0.14798183  0.21820914     0.77100
O439        O  0.87474994  0.14345635  0.25543184    -0.59100
O440        O  0.87372734  0.09689423  0.21858367    -0.57500
O441        O  0.75507032  0.06953228  0.26039621    -0.57500
O442        O  0.77531038  0.10747072  0.21298464    -0.56700
C443        C  0.51154466  0.92031838  0.32148669     0.03100
C444        C  0.47942549  0.87351220  0.31773515    -0.13100
C445        C  0.48941655  0.84960014  0.30546995     0.00600
C446        C  0.53150574  0.87325001  0.29640446    -0.11600
C447        C  0.56305230  0.92095453  0.29921104     0.03100
C448        C  0.55258681  0.94435930  0.31172538    -0.11000
H449        H  0.44721901  0.85514899  0.32495170     0.08700
H450        H  0.53948387  0.85468960  0.28702486     0.06200
H451        H  0.57652276  0.98108032  0.31401352     0.06000
C452        C  0.73144177  0.43300990  0.17646888     0.80200
N453        N  0.71118202  0.38615036  0.17636654    -0.78200
C454        C  0.73746751  0.36708613  0.17653552     0.82600
N455        N  0.78416701  0.39506839  0.17663827    -0.78100
C456        C  0.80482220  0.44194037  0.17671686     0.82700
N457        N  0.77837778  0.46093844  0.17650882    -0.79800
C458        C  0.63187456  0.45091702  0.18175538     0.03100
C459        C  0.66077844  0.43343953  0.18410329    -0.13100
C460        C  0.70247075  0.45305569  0.17484651     0.00600
C461        C  0.71489237  0.48991809  0.16301130    -0.11600
C462        C  0.68615266  0.50747894  0.16037491     0.03100
C463        C  0.64485157  0.48806451  0.16990892    -0.11000
H464        H  0.65079157  0.40458651  0.19314105     0.08700
H465        H  0.74600265  0.50362242  0.15524779     0.06200
H466        H  0.62279805  0.50187422  0.16809809     0.06000
O467        O  0.37234118  0.43275546  0.25179984    -0.57900
C468        C  0.32277399  0.33370658  0.21381548     0.74700
O469        O  0.46111929  0.37480439  0.23863091    -0.59000
C470        C  0.41226482  0.46062979  0.25799855     0.74700
C471        C  0.35008334  0.30678485  0.27148681     0.77100
Cd472      Cd  0.38834315  0.37314579  0.24252953     1.37500
O473        O  0.33239693  0.37108621  0.22116564    -0.57900
O474        O  0.33207954  0.32888236  0.26584028    -0.56700
C475        C  0.47005824  0.39494290  0.22365810     0.77100
O476        O  0.38637608  0.31520482  0.26372206    -0.59100
O477        O  0.34294341  0.31407842  0.21996337    -0.57500
O478        O  0.44114484  0.44822138  0.25693431    -0.57500
O479        O  0.44131803  0.40462337  0.21765805    -0.56700
C480        C  0.50960053  0.67228733  0.32279263     0.03100
C481        C  0.49246209  0.63241919  0.31242680    -0.13100
C482        C  0.46020585  0.62265854  0.29883542     0.00600
C483        C  0.44338847  0.65213338  0.29600240    -0.11600
C484        C  0.46031297  0.69226863  0.30625115     0.03100
C485        C  0.49372839  0.70235525  0.31945022    -0.11000
H486        H  0.50386114  0.60854461  0.31501778     0.08700
H487        H  0.41808092  0.64440302  0.28563564     0.06200
H488        H  0.50659367  0.73313240  0.32746011     0.06000
C489        C  0.93016914  0.53842222  0.18350517     0.03100
C490        C  0.88175442  0.51142287  0.18520095    -0.13100
C491        C  0.85536380  0.47135504  0.17497653     0.00600
C492        C  0.87731312  0.45925312  0.16259490    -0.11600
C493        C  0.92513503  0.48708413  0.16011682     0.03100
C494        C  0.95153827  0.52603431  0.17089141    -0.11000
H495        H  0.86477328  0.52132839  0.19454804     0.08700
H496        H  0.85686331  0.42899107  0.15435294     0.06200
H497        H  0.98872416  0.54695172  0.16934580     0.06000
O498        O  0.16454260  0.80908642  0.25284397    -0.57900
C499        C  0.11779084  0.86333776  0.21570171     0.74700
O500        O  0.01764318  0.71603871  0.23699952    -0.59000
C501        C  0.14862856  0.77094489  0.26113778     0.74700
C502        C  0.05423422  0.82581597  0.27173068     0.77100
Cd503      Cd  0.08766734  0.79363083  0.24344646     1.37500
O504        O  0.14627142  0.85771074  0.22454927    -0.57900
O505        O  0.09644574  0.84025336  0.26953105    -0.56700
C506        C  0.03424547  0.70896050  0.22337153     0.77100
O507        O  0.02666690  0.79617593  0.26059624    -0.59100
O508        O  0.07576804  0.83745221  0.21998084    -0.57500
O509        O  0.10509060  0.74465252  0.26162642    -0.57500
O510        O  0.07487437  0.74064390  0.21926398    -0.56700
C511        C  0.26090753  0.71803062  0.30033188     0.03100
C512        C  0.23764428  0.68353442  0.31333302    -0.13100
C513        C  0.26006537  0.66489095  0.32260512     0.00600
C514        C  0.30631912  0.68105506  0.31883337    -0.11600
C515        C  0.33051731  0.71618205  0.30615201     0.03100
C516        C  0.30772528  0.73484676  0.29695984    -0.11000
H517        H  0.20192861  0.67125147  0.31627880     0.08700
H518        H  0.32384129  0.66703044  0.32615662     0.06200
H519        H  0.32599447  0.76154909  0.28698177     0.06000
C520        C  0.44268061  0.72336608  0.30374732     0.80200
N521        N  0.47272162  0.77014176  0.30358947    -0.78200
C522        C  0.45684686  0.79931596  0.30323796     0.82600
N523        N  0.41057075  0.78149280  0.30337143    -0.78100
C524        C  0.38019183  0.73483198  0.30355621     0.82700
N525        N  0.39643206  0.70583741  0.30390826    -0.79800
C526        C  0.35136542  0.58417089  0.99373829     0.03100
C527        C  0.38162290  0.63163054  0.99684782    -0.13100
C528        C  0.37124413  0.65431732  0.00948582     0.00600
C529        C  0.33068086  0.62925920  0.01936399    -0.11600
C530        C  0.30141917  0.58101994  0.01723142     0.03100
C531        C  0.31163312  0.55874611  0.00414217    -0.11000
H532        H  0.41242742  0.65133616  0.98887786     0.08700
H533        H  0.32210456  0.64723847  0.02878748     0.06200
H534        H  0.28894436  0.52169211  0.00211886     0.06000
O535        O  0.05169868  0.34411881  0.08185018    -0.57900
C536        C  0.98356891  0.39053855  0.04933183     0.74700
O537        O  0.04590370  0.47017773  0.09756790    -0.59000
C538        C  0.07680121  0.35839866  0.09565858     0.74700
C539        C  0.13364925  0.47577685  0.05787596     0.77100
Cd540      Cd  0.05047178  0.41603493  0.07744354     1.37500
O541        O  0.98677862  0.35999521  0.05794923    -0.57900
O542        O  0.10498328  0.43404059  0.05378872    -0.56700
C543        C  0.00961566  0.43918770  0.10537686     0.77100
O544        O  0.12468271  0.49068847  0.07156443    -0.59100
O545        O  0.00973649  0.43204747  0.05437302    -0.57500
O546        O  0.08914189  0.39861686  0.10084148    -0.57500
O547        O  0.99187546  0.39808170  0.09986785    -0.56700
C548        C  0.14720901  0.25645336  0.13137720     0.03100
C549        C  0.18309594  0.27974128  0.14385459    -0.13100
C550        C  0.19902244  0.25562625  0.15375282     0.00600
C551        C  0.17905557  0.20795626  0.15095696    -0.11600
C552        C  0.14302967  0.18422451  0.13865662     0.03100
C553        C  0.12675181  0.20844717  0.12906111    -0.11000
H554        H  0.19828361  0.31657669  0.14601272     0.08700
H555        H  0.19009748  0.18883693  0.15901014     0.06200
H556        H  0.09797023  0.18994349  0.11992304     0.06000
C557        C  0.59802299  0.79717877  0.01945825     0.03100
C558        C  0.62212867  0.83346935  0.00715763    -0.13100
C559        C  0.59915489  0.85017969  0.99700722     0.00600
C560        C  0.55149702  0.82991159  0.99914458    -0.11600
C561        C  0.52673452  0.79346750  0.01124484     0.03100
C562        C  0.55000071  0.77665291  0.02123906    -0.11000
H563        H  0.65885476  0.84845031  0.00536499     0.08700
H564        H  0.53320934  0.84128600  0.99078591     0.06200
H565        H  0.53099122  0.74812228  0.03048126     0.06000
O566        O  0.68587879  0.69255831  0.06349354    -0.57900
C567        C  0.73253925  0.63760435  0.10231539     0.74700
O568        O  0.81956749  0.70686665  0.05410999    -0.59000
C569        C  0.70360192  0.73092251  0.05520258     0.74700
C570        C  0.81858746  0.78935896  0.09278844     0.77100
Cd571      Cd  0.76101140  0.70496410  0.07386906     1.37500
O572        O  0.70367375  0.64364768  0.09396487    -0.57900
O573        O  0.77511121  0.76568570  0.09442238    -0.56700
C574        C  0.79078493  0.67105656  0.04550400     0.77100
O575        O  0.83602637  0.77338134  0.08262295    -0.59100
O576        O  0.77413595  0.66258928  0.09746969    -0.57500
O577        O  0.74722657  0.75643961  0.05546448    -0.57500
O578        O  0.74916423  0.65113815  0.05030592    -0.56700
C579        C  0.92941594  0.95682277  0.13332666     0.03100
C580        C  0.97655679  0.98743309  0.12974491    -0.13100
C581        C  0.00192103  0.02989690  0.13858958     0.00600
C582        C  0.97953213  0.04270788  0.15046897    -0.11600
C583        C  0.93269306  0.01217723  0.15452316     0.03100
C584        C  0.90813468  0.96889799  0.14608946    -0.11000
H585        H  0.99349433  0.97841144  0.12003176     0.08700
H586        H  0.99916923  0.07578229  0.15716847     0.06200
H587        H  0.87244666  0.94428561  0.14952595     0.06000
C588        C  0.21988990  0.04149888  0.13338132     0.03100
C589        C  0.20698963  0.00691186  0.14642099    -0.13100
C590        C  0.16714104  0.99134826  0.15651558     0.00600
C591        C  0.13998160  0.01056654  0.15340208    -0.11600
C592        C  0.15292995  0.04569499  0.14065096     0.03100
C593        C  0.19338554  0.06170336  0.13091596    -0.11000
H594        H  0.22775364  0.99175697  0.14860874     0.08700
H595        H  0.10960781  0.99932002  0.16136835     0.06200
H596        H  0.20391515  0.08940772  0.12127157     0.06000
O597        O  0.52169459  0.11862420  0.09567056    -0.57900
C598        C  0.43909339  0.03224750  0.05717358     0.74700
O599        O  0.39527474  0.11976084  0.07922659    -0.59000
C600        C  0.52991001  0.15477274  0.10364585     0.74700
C601        C  0.50566601  0.18457564  0.04623519     0.77100
Cd602      Cd  0.46544583  0.11743662  0.07458354     1.37500
O603        O  0.47779045  0.05582597  0.06495809    -0.57900
O604        O  0.52212800  0.16067918  0.05139000    -0.56700
C605        C  0.38383675  0.09542936  0.09327403     0.77100
O606        O  0.47101369  0.17860294  0.05458791    -0.59100
O607        O  0.41261181  0.04768895  0.05775168    -0.57500
O608        O  0.50892401  0.17387653  0.09786231    -0.57500
O609        O  0.40899685  0.08007110  0.09808544    -0.56700
C610        C  0.34163754  0.82489683  0.98872656     0.03100
C611        C  0.35895982  0.79623296  0.99244205    -0.13100
C612        C  0.39156754  0.80750783  0.00607431     0.00600
C613        C  0.40625377  0.84715053  0.01623415    -0.11600
C614        C  0.38788662  0.87500835  0.01309577     0.03100
C615        C  0.35544978  0.86370757  0.99941032    -0.11000
H616        H  0.34816998  0.76598303  0.98434562     0.08700
H617        H  0.43126248  0.85584344  0.02682552     0.06200
H618        H  0.34129872  0.88532344  0.99698862     0.06000
C619        C  0.41116644  0.77858836  0.00933268     0.80200
N620        N  0.45766195  0.79853933  0.01063573    -0.78200
C621        C  0.47625269  0.77178467  0.01229918     0.82600
N622        N  0.44797046  0.72481577  0.01246966    -0.78100
C623        C  0.40139559  0.70473517  0.01130353     0.82700
N624        N  0.38316050  0.73166362  0.00956293    -0.79800
C625        C  0.12512837  0.06683681  0.13815014     0.80200
N626        N  0.07825431  0.03968889  0.13771510    -0.78200
C627        C  0.05240091  0.05927724  0.13674776     0.82600
N628        N  0.07364638  0.10626153  0.13655291    -0.78100
C629        C  0.12046348  0.13361289  0.13699252     0.82700
N630        N  0.14608457  0.11376637  0.13790162    -0.79800
C631        C  0.42616883  0.98994140  0.04727244    -0.06200
C632        C  0.45977315  0.99010215  0.03674050    -0.17300
C633        C  0.44809954  0.95356521  0.02520319     0.11000
C634        C  0.40196533  0.91547587  0.02441315    -0.06100
C635        C  0.36864130  0.91472166  0.03528481    -0.17300
C636        C  0.38034732  0.95118233  0.04685184     0.11000
S637        S  0.49317354  0.95852925  0.01136500    -0.32300
S638        S  0.33581169  0.94527395  0.06124469    -0.32300
H639        H  0.36563302  0.96846382  0.07563166     0.29000
H640        H  0.46439808  0.93408385  0.99691023     0.29000
H641        H  0.49493997  0.01984873  0.03690441     0.19600
H642        H  0.33346894  0.88499364  0.03503252     0.19600
C643        C  0.26173691  0.05693685  0.12267792    -0.06200
C644        C  0.30370594  0.07194461  0.13156679    -0.17300
C645        C  0.34431428  0.08634857  0.12228016     0.11000
C646        C  0.34315342  0.08521600  0.10359944    -0.06100
C647        C  0.30162499  0.07162428  0.09465099    -0.17300
C648        C  0.26082242  0.05679429  0.10394669     0.11000
S649        S  0.39674818  0.10727970  0.13504098    -0.32300
S650        S  0.20849627  0.03554461  0.09110302    -0.32300
H651        H  0.17941515  0.00058636  0.10321567     0.29000
H652        H  0.42585540  0.14174574  0.12276472     0.29000
H653        H  0.30495510  0.07297758  0.14589678     0.19600
H654        H  0.30047353  0.07045398  0.08032262     0.19600
C655        C  0.90151311  0.91311375  0.12325833    -0.06200
C656        C  0.86043441  0.90446890  0.11512112    -0.17300
C657        C  0.83339917  0.86509937  0.10477518     0.11000
C658        C  0.84741186  0.83313085  0.10245781    -0.06100
C659        C  0.88868233  0.84189285  0.11037950    -0.17300
C660        C  0.91528748  0.88084519  0.12104460     0.11000
S661        S  0.78249419  0.85877082  0.09432879    -0.32300
S662        S  0.96452220  0.88551144  0.13229402    -0.32300
H663        H  0.96112205  0.90674398  0.14753770     0.29000
H664        H  0.78720592  0.84052928  0.07847631     0.29000
H665        H  0.84980622  0.92921470  0.11651228     0.19600
H666        H  0.89920788  0.81709323  0.10890461     0.19600
C667        C  0.62321714  0.77983410  0.02982257    -0.06200
C668        C  0.60957120  0.73305017  0.02818714    -0.17300
C669        C  0.63546017  0.71618983  0.03599018     0.11000
C670        C  0.67533645  0.74635531  0.04608577    -0.06100
C671        C  0.68872591  0.79297885  0.04781939    -0.17300
C672        C  0.66300570  0.80987205  0.04002483     0.11000
S673        S  0.61779539  0.65698408  0.03146756    -0.32300
S674        S  0.68239692  0.86986865  0.04396712    -0.32300
H675        H  0.63826882  0.86367654  0.04314552     0.29000
H676        H  0.66294495  0.66599732  0.03023778     0.29000
H677        H  0.57972098  0.71000158  0.02009581     0.19600
H678        H  0.71904017  0.81632135  0.05564500     0.19600
C679        C  0.12899489  0.28188374  0.12178383    -0.06200
C680        C  0.11416736  0.30602158  0.13178223    -0.17300
C681        C  0.09600384  0.33034849  0.12364158     0.11000
C682        C  0.09224145  0.33038868  0.10500770    -0.06100
C683        C  0.10599822  0.30532644  0.09500492    -0.17300
C684        C  0.12511521  0.28188142  0.10313065     0.11000
S685        S  0.07597694  0.35943584  0.13725470    -0.32300
S686        S  0.14606547  0.25488886  0.08890453    -0.32300
H687        H  0.18296217  0.26278435  0.09999822     0.29000
H688        H  0.08482656  0.34592921  0.15376553     0.29000
H689        H  0.11652854  0.30538486  0.14607157     0.19600
H690        H  0.10375660  0.30572769  0.08069221     0.19600
C691        C  0.25905982  0.55428625  0.02806459    -0.06200
C692        C  0.21676679  0.52571575  0.01931957    -0.17300
C693        C  0.17535341  0.50107920  0.02863384     0.11000
C694        C  0.17568387  0.50482244  0.04726106    -0.06100
C695        C  0.21780810  0.53391391  0.05603084    -0.17300
C696        C  0.25949418  0.55768767  0.04673833     0.11000
S697        S  0.12316061  0.46677182  0.01582260    -0.32300
S698        S  0.31205150  0.58886637  0.05964918    -0.32300
H699        H  0.33877450  0.58007583  0.04828148     0.29000
H700        H  0.09618507  0.47643387  0.02661398     0.29000
H701        H  0.21583414  0.52324326  0.00502309     0.19600
H702        H  0.21857330  0.53619932  0.07033043     0.19600
C703        C  0.23458015  0.73366780  0.28971950    -0.06200
C704        C  0.19488292  0.69967119  0.28068820    -0.17300
C705        C  0.16737192  0.71110316  0.27077045     0.11000
C706        C  0.17906989  0.75774955  0.26996167    -0.06100
C707        C  0.21951302  0.79209849  0.27855434    -0.17300
C708        C  0.24698185  0.78054214  0.28861071     0.11000
S709        S  0.11872955  0.66461198  0.25900370    -0.32300
S710        S  0.29560654  0.82675078  0.30045458    -0.32300
H711        H  0.29307455  0.79940504  0.31506038     0.29000
H712        H  0.12355339  0.69152571  0.24390446     0.29000
H713        H  0.18544184  0.66374723  0.28123956     0.19600
H714        H  0.22867598  0.82792791  0.27809294     0.19600
C715        C  0.15503535  0.95666352  0.17092167    -0.06200
C716        C  0.18780962  0.96628848  0.18432149    -0.17300
C717        C  0.17681030  0.93719331  0.19917758     0.11000
C718        C  0.13194936  0.89691384  0.20072555    -0.06100
C719        C  0.09954089  0.88702928  0.18711494    -0.17300
C720        C  0.11075567  0.91580075  0.17219272     0.11000
S721        S  0.22092172  0.95491821  0.21597768    -0.32300
S722        S  0.06763684  0.89728502  0.15491211    -0.32300
H723        H  0.09910507  0.91699042  0.14087168     0.29000
H724        H  0.19068142  0.94517103  0.23013340     0.29000
H725        H  0.22181563  0.99769951  0.18351880     0.19600
H726        H  0.06541000  0.85578042  0.18783002     0.19600
C727        C  0.94706969  0.47549204  0.14603040    -0.06200
C728        C  0.94050346  0.43105275  0.14600948    -0.17300
C729        C  0.96114391  0.41845827  0.13326283     0.11000
C730        C  0.98868518  0.45077957  0.11989498    -0.06100
C731        C  0.99521682  0.49525333  0.11998367    -0.17300
C732        C  0.97415950  0.50762414  0.13262426     0.11000
S733        S  0.95248169  0.36142711  0.13540450    -0.32300
S734        S  0.98117638  0.56398082  0.13027573    -0.32300
H735        H  0.93677429  0.54999289  0.13628432     0.29000
H736        H  0.99868379  0.37665052  0.13171501     0.29000
H737        H  0.91989511  0.40623736  0.15627652     0.19600
H738        H  0.01556193  0.52015576  0.10970918     0.19600
C739        C  0.95836540  0.58112122  0.19414616    -0.06200
C740        C  0.98726768  0.62325774  0.18522422    -0.17300
C741        C  0.01204961  0.66529256  0.19433554     0.11000
C742        C  0.00797884  0.66572240  0.21293541    -0.06100
C743        C  0.97977807  0.62341737  0.22190681    -0.17300
C744        C  0.95598484  0.58118134  0.21280281     0.11000
S745        S  0.04663697  0.71719367  0.18126897    -0.32300
S746        S  0.92551319  0.52849452  0.22581017    -0.32300
H747        H  0.93248977  0.50100717  0.21408501     0.29000
H748        H  0.03432669  0.74433553  0.19076080     0.29000
H749        H  0.98954964  0.62362106  0.17092810     0.19600
H750        H  0.97759667  0.62305313  0.23620226     0.19600
C751        C  0.44575529  0.58217947  0.28737739    -0.06200
C752        C  0.47936567  0.58262773  0.27675629    -0.17300
C753        C  0.46883875  0.54458739  0.26626180     0.11000
C754        C  0.42386632  0.50437219  0.26667072    -0.06100
C755        C  0.38974679  0.50468907  0.27675185    -0.17300
C756        C  0.40028431  0.54285685  0.28723195     0.11000
S757        S  0.51392632  0.55019239  0.25228337    -0.32300
S758        S  0.35485039  0.53815771  0.30075340    -0.32300
H759        H  0.38347179  0.56475265  0.31490658     0.29000
H760        H  0.48416367  0.52473587  0.23816967     0.29000
H761        H  0.51414045  0.61305150  0.27660650     0.19600
H762        H  0.35513587  0.47408005  0.27717438     0.19600
C763        C  0.23342983  0.27898040  0.16817928    -0.06200
C764        C  0.22403231  0.30136858  0.18141005    -0.17300
C765        C  0.25202676  0.31894931  0.19652098     0.11000
C766        C  0.29078592  0.31451903  0.19851471    -0.06100
C767        C  0.30060219  0.29280217  0.18513703    -0.17300
C768        C  0.27299046  0.27584846  0.16990443     0.11000
S769        S  0.23476372  0.34414339  0.21316241    -0.32300
S770        S  0.29109663  0.25226643  0.15288567    -0.32300
H771        H  0.27274964  0.26476141  0.13864738     0.29000
H772        H  0.24450662  0.32375911  0.22752783     0.29000
H773        H  0.19348333  0.30347609  0.18031698     0.19600
H774        H  0.33085824  0.29020882  0.18630816     0.19600
C775        C  0.71921080  0.60411638  0.11721507    -0.06200
C776        C  0.75174955  0.61438484  0.13080491    -0.17300
C777        C  0.74125707  0.58492171  0.14547459     0.11000
C778        C  0.69742827  0.54328943  0.14652870    -0.06100
C779        C  0.66462206  0.53335031  0.13311079    -0.17300
C780        C  0.67510662  0.56283196  0.11844396     0.11000
S781        S  0.78486518  0.60319603  0.16257652    -0.32300
S782        S  0.63182833  0.54390946  0.10124159    -0.32300
H783        H  0.66333065  0.55622848  0.08732835     0.29000
H784        H  0.75373218  0.58149535  0.17661314     0.29000
H785        H  0.78547650  0.64620590  0.13018891     0.19600
H786        H  0.63119555  0.50113395  0.13363303     0.19600
C787        C  0.58902303  0.43167108  0.19221142    -0.06200
C788        C  0.59265182  0.43264999  0.21074529    -0.17300
C789        C  0.55459239  0.42067149  0.22137920     0.11000
C790        C  0.51141884  0.40647770  0.21337906    -0.06100
C791        C  0.50747244  0.40390296  0.19484498    -0.17300
C792        C  0.54545076  0.41565357  0.18422534     0.11000
S793        S  0.56443910  0.42772912  0.24491810    -0.32300
S794        S  0.53570981  0.40847199  0.16064407    -0.32300
H795        H  0.57047121  0.39915283  0.15736459     0.29000
H796        H  0.53890895  0.44893655  0.24720099     0.29000
H797        H  0.62597434  0.44507513  0.21697349     0.19600
H798        H  0.47433953  0.39215539  0.18856069     0.19600
C799        C  0.60588033  0.94650307  0.28850194    -0.06200
C800        C  0.60190357  0.94258707  0.26997176    -0.17300
C801        C  0.64027587  0.96862205  0.25904003     0.11000
C802        C  0.68407529  0.99911733  0.26671797    -0.06100
C803        C  0.68823237  0.00266745  0.28520785    -0.17300
C804        C  0.65006877  0.97621221  0.29615209     0.11000
S805        S  0.63045240  0.96353667  0.23546118    -0.32300
S806        S  0.66076256  0.98059152  0.31969644    -0.32300
H807        H  0.62591800  0.93443970  0.32362549     0.29000
H808        H  0.66110264  0.01105649  0.23178750     0.29000
H809        H  0.56823215  0.92030614  0.26391111     0.19600
H810        H  0.72186780  0.02547390  0.29122516     0.19600
C811        C  0.87136872  0.04510229  0.19683837    -0.06200
C812        C  0.84669618  0.02673968  0.18099035    -0.17300
C813        C  0.86628552  0.01752649  0.16671733     0.11000
C814        C  0.91084592  0.02432419  0.16857728    -0.06100
C815        C  0.93516847  0.04220559  0.18458378    -0.17300
C816        C  0.91623505  0.05297354  0.19858556     0.11000
S817        S  0.83380646  0.00045848  0.14623458    -0.32300
S818        S  0.95067063  0.07529722  0.21848135    -0.32300
H819        H  0.91322240  0.05248587  0.23017607     0.29000
H820        H  0.87265521  0.02302502  0.13519009     0.29000
H821        H  0.81271579  0.02171625  0.17939346     0.19600
H822        H  0.96903345  0.04708144  0.18636783     0.19600
C823        C  0.62267729  0.21690998  0.14803456    -0.06200
C824        C  0.63005545  0.19075941  0.13580176    -0.17300
C825        C  0.59962193  0.16856314  0.12163718     0.11000
C826        C  0.56151445  0.17383134  0.11909662    -0.06100
C827        C  0.55365985  0.19924547  0.13152316    -0.17300
C828        C  0.58299950  0.21979201  0.14611539     0.11000
S829        S  0.61310241  0.13661527  0.10673266    -0.32300
S830        S  0.56691752  0.24781572  0.16200321    -0.32300
H831        H  0.58632367  0.23834966  0.17675062     0.29000
H832        H  0.57243730  0.09399773  0.11074722     0.29000
H833        H  0.66041088  0.18837222  0.13705892     0.19600
H834        H  0.52386015  0.20250945  0.13003809     0.19600
C835        C  0.73543667  0.22302875  0.19241970    -0.06200
C836        C  0.74903299  0.19796188  0.18234437    -0.17300
C837        C  0.76923014  0.17551306  0.19028862     0.11000
C838        C  0.77540414  0.17728695  0.20884251    -0.06100
C839        C  0.76342587  0.20376226  0.21887646    -0.17300
C840        C  0.74293719  0.22606238  0.21093254     0.11000
S841        S  0.78762791  0.14644483  0.17594017    -0.32300
S842        S  0.72462221  0.25519087  0.22530089    -0.32300
H843        H  0.68527486  0.24488995  0.21528654     0.29000
H844        H  0.82682242  0.15695741  0.18612789     0.29000
H845        H  0.74447311  0.19642881  0.16809677     0.19600
H846        H  0.76765147  0.20496066  0.23313426     0.19600
C847        C  0.09390450  0.84024085  0.87863579    -0.06200
C848        C  0.09075891  0.83874244  0.86009239    -0.17300
C849        C  0.07556590  0.86390448  0.85056872     0.11000
C850        C  0.06188958  0.89070758  0.85970747    -0.06100
C851        C  0.06515754  0.89243944  0.87826626    -0.17300
C852        C  0.08034942  0.86712008  0.88780679     0.11000
S853        S  0.07589035  0.86132779  0.82674682    -0.32300
S854        S  0.07839860  0.86793582  0.91159869    -0.32300
H855        H  0.06114576  0.82023606  0.91380874     0.29000
H856        H  0.08671352  0.90700510  0.82373304     0.29000
H857        H  0.10112035  0.81839824  0.85287989     0.19600
H858        H  0.05409539  0.91227862  0.88542052     0.19600
C859        C  0.24123146  0.79020915  0.94682234    -0.06200
C860        C  0.28300138  0.83364681  0.94677768    -0.17300
C861        C  0.31679636  0.84544904  0.95994822     0.11000
C862        C  0.30851629  0.81369018  0.97385858    -0.06100
C863        C  0.26695734  0.77034022  0.97392035    -0.17300
C864        C  0.23318134  0.75849336  0.96080773     0.11000
S865        S  0.37043635  0.90074599  0.95781062    -0.32300
S866        S  0.17971478  0.70333144  0.96341715    -0.32300
H867        H  0.15156596  0.72127316  0.95967315     0.29000
H868        H  0.39859500  0.88616049  0.96540564     0.29000
H869        H  0.28998278  0.85818270  0.93614067     0.19600
H870        H  0.26012239  0.74599705  0.98462604     0.19600
C871        C  0.80507500  0.65277751  0.03090753    -0.06200
C872        C  0.84932528  0.65933476  0.03155073    -0.17300
C873        C  0.86322826  0.63939350  0.01889079     0.11000
C874        C  0.83257498  0.61313082  0.00500818    -0.06100
C875        C  0.78897675  0.60788137  0.00405052    -0.17300
C876        C  0.77482315  0.62727272  0.01678311     0.11000
S877        S  0.91857433  0.64471964  0.02139251    -0.32300
S878        S  0.71880668  0.62059300  0.01429956    -0.32300
H879        H  0.70192421  0.58736613  0.00076352     0.29000
H880        H  0.93389731  0.67371383  0.03628051     0.29000
H881        H  0.87235415  0.67858998  0.04242700     0.19600
H882        H  0.76592594  0.58836579  0.99321364     0.19600
C883        C  0.93486925  0.61486112  0.95761277    -0.06200
C884        C  0.92904358  0.61550474  0.93920563    -0.17300
C885        C  0.96697419  0.64196073  0.92810973     0.11000
C886        C  0.01190200  0.66784384  0.93552496    -0.06100
C887        C  0.01758787  0.66688438  0.95391961    -0.17300
C888        C  0.97982328  0.64015001  0.96496107     0.11000
S889        S  0.95542777  0.64333599  0.90483723    -0.32300
S890        S  0.99162196  0.63842457  0.98819336    -0.32300
H891        H  0.95432195  0.59284224  0.99126115     0.29000
H892        H  0.98864298  0.69092879  0.90255545     0.29000
H893        H  0.89457156  0.59642946  0.93351153     0.19600
H894        H  0.05194499  0.68615496  0.95971471     0.19600
C895        C  0.92485175  0.11255722  0.86074581    -0.06200
C896        C  0.89200278  0.06492183  0.86286889    -0.17300
C897        C  0.85161938  0.04920752  0.87259141     0.11000
C898        C  0.84379389  0.08178642  0.88066642    -0.06100
C899        C  0.87727985  0.12937081  0.87886227    -0.17300
C900        C  0.91781862  0.14500817  0.86932632     0.11000
S901        S  0.81053360  0.98744030  0.87321247    -0.32300
S902        S  0.95986366  0.20668127  0.86924183    -0.32300
H903        H  0.99881402  0.20273259  0.86857938     0.29000
H904        H  0.77221174  0.99121550  0.86927441     0.29000
H905        H  0.89701991  0.03973308  0.85633222     0.19600
H906        H  0.87228655  0.15476731  0.88523353     0.19600
C907        C  0.66408596  0.94696877  0.95380789    -0.06200
C908        C  0.63856292  0.95415668  0.96634177    -0.17300
C909        C  0.61942530  0.92499535  0.98108497     0.11000
C910        C  0.62404112  0.88617244  0.98312358    -0.06100
C911        C  0.65036103  0.87946367  0.97080263    -0.17300
C912        C  0.67081687  0.90958376  0.95628741     0.11000
S913        S  0.59078734  0.94021687  0.99699692    -0.32300
S914        S  0.70253761  0.89771760  0.94053497    -0.32300
H915        H  0.70241898  0.86196351  0.95022804     0.29000
H916        H  0.60160054  0.92203633  0.01179735     0.29000
H917        H  0.63417318  0.98340054  0.96482637     0.19600
H918        H  0.65348124  0.84945916  0.97223041     0.19600
C919        C  0.88469819  0.35168725  0.00662037    -0.06200
C920        C  0.92486214  0.39621551  0.00686876    -0.17300
C921        C  0.95771838  0.41003377  0.02051646     0.11000
C922        C  0.95072821  0.37815275  0.03426732    -0.06100
C923        C  0.91117963  0.33308304  0.03369389    -0.17300
C924        C  0.87780692  0.31981372  0.02029986     0.11000
S925        S  0.00858340  0.46806704  0.01972031    -0.32300
S926        S  0.82623117  0.26271403  0.02208863    -0.32300
H927        H  0.79583476  0.27593516  0.01578209     0.29000
H928        H  0.99780294  0.48281728  0.00391709     0.29000
H929        H  0.93023314  0.42037727  0.99628765     0.19600
H930        H  0.90524566  0.30841489  0.04416191     0.19600
C931        C  0.77958775  0.24775054  0.95838607    -0.06200
C932        C  0.76207824  0.20503764  0.96723886    -0.17300
C933        C  0.74542738  0.16375822  0.95790721     0.11000
C934        C  0.74678117  0.16494515  0.93922810    -0.06100
C935        C  0.76240437  0.20720969  0.93032884    -0.17300
C936        C  0.77947973  0.24863996  0.93965999     0.11000
S937        S  0.72186751  0.11058038  0.97058414    -0.32300
S938        S  0.80351122  0.30163874  0.92686791    -0.32300
H939        H  0.83938106  0.32923924  0.93889121     0.29000
H940        H  0.68828352  0.08222726  0.95792637     0.29000
H941        H  0.76115962  0.20382200  0.98157201     0.19600
H942        H  0.76380069  0.20841799  0.91600320     0.19600
C943        C  0.33876463  0.33536975  0.88144537    -0.06200
C944        C  0.30654600  0.29302435  0.88956492    -0.17300
C945        C  0.28048595  0.25227833  0.87966643     0.11000
C946        C  0.28511074  0.25394056  0.86102430    -0.06100
C947        C  0.31663213  0.29659765  0.85291075    -0.17300
C948        C  0.34314826  0.33708066  0.86281682     0.11000
S949        S  0.24449743  0.19895016  0.89179853    -0.32300
S950        S  0.38061908  0.39013767  0.85075295    -0.32300
H951        H  0.37248666  0.41842384  0.86157085     0.29000
H952        H  0.25206665  0.17098216  0.88057214     0.29000
H953        H  0.30320056  0.29117361  0.90383360     0.19600
H954        H  0.32012433  0.29857922  0.83864284     0.19600
C955        C  0.38787626  0.52033177  0.95379583    -0.06200
C956        C  0.34577957  0.51841567  0.95242746    -0.17300
C957        C  0.33321981  0.53956560  0.96503682     0.11000
C958        C  0.36247570  0.56162675  0.97977636    -0.06100
C959        C  0.40436166  0.56342288  0.98116992    -0.17300
C960        C  0.41728247  0.54303456  0.96848486     0.11000
S961        S  0.28088711  0.53941679  0.96104967    -0.32300
S962        S  0.47083986  0.54568634  0.97234608    -0.32300
H963        H  0.45328960  0.50001520  0.96672663     0.29000
H964        H  0.29670324  0.58292395  0.96870327     0.29000
H965        H  0.32331632  0.50187796  0.94109946     0.19600
H966        H  0.42696744  0.58034309  0.99243977     0.19600
C967        C  0.57086050  0.28781483  0.00520221    -0.06200
C968        C  0.57013020  0.24622394  0.00419201    -0.17300
C969        C  0.54791407  0.21135359  0.01703532     0.11000
C970        C  0.52638725  0.21831636  0.03148519    -0.06100
C971        C  0.52662325  0.25969508  0.03234792    -0.17300
C972        C  0.54928635  0.29476220  0.01960467     0.11000
S973        S  0.54686410  0.15827416  0.01379411    -0.32300
S974        S  0.55182413  0.34853597  0.02310068    -0.32300
H975        H  0.59666693  0.37754634  0.01639228     0.29000
H976        H  0.50107802  0.12889584  0.01956133     0.29000
H977        H  0.58646683  0.24061919  0.99314567     0.19600
H978        H  0.51078825  0.26567236  0.04347130     0.19600
C979        C  0.51913864  0.42809299  0.94224951    -0.06200
C980        C  0.54930528  0.42009845  0.93277030    -0.17300
C981        C  0.57479239  0.40366941  0.94120519     0.11000
C982        C  0.57189859  0.39694442  0.95977107    -0.06100
C983        C  0.54351309  0.40722714  0.96935265    -0.17300
C984        C  0.51699482  0.42242322  0.96085418     0.11000
S985        S  0.60745092  0.38880623  0.92727906    -0.32300
S986        S  0.48155581  0.43528160  0.97408010    -0.32300
H987        H  0.49889174  0.43232956  0.99071924     0.29000
H988        H  0.59812795  0.34935314  0.93715034     0.29000
H989        H  0.55112390  0.42418958  0.91850982     0.19600
H990        H  0.54182022  0.40282706  0.98358902     0.19600
C991        C  0.77249379  0.67228118  0.71152137    -0.06200
C992        C  0.75521350  0.62897494  0.71990589    -0.17300
C993        C  0.74146020  0.58867361  0.71013888     0.11000
C994        C  0.74608285  0.59153331  0.69149806    -0.06100
C995        C  0.76574560  0.63530607  0.68326695    -0.17300
C996        C  0.77945999  0.67549606  0.69301353     0.11000
S997        S  0.71529444  0.53439616  0.72217683    -0.32300
S998        S  0.80667129  0.72995038  0.68105026    -0.32300
H999        H  0.83782624  0.75605750  0.69473602     0.29000
H1000       H  0.68188634  0.50802027  0.70917430     0.29000
H1001       H  0.74985188  0.62594905  0.73407354     0.19600
H1002       H  0.77037619  0.63818199  0.66905525     0.19600
C1003       C  0.88866621  0.84817496  0.78648925    -0.06200
C1004       C  0.87842735  0.86776945  0.80060270    -0.17300
C1005       C  0.90868719  0.88786720  0.81503525     0.11000
C1006       C  0.95083202  0.88935646  0.81537104    -0.06100
C1007       C  0.96117694  0.86985804  0.80133159    -0.17300
C1008       C  0.93087434  0.84956085  0.78687657     0.11000
S1009       S  0.89113446  0.91023692  0.83270740    -0.32300
S1010       S  0.94832801  0.82859898  0.76860853    -0.32300
H1011       H  0.99155354  0.83998407  0.77553925     0.29000
H1012       H  0.91445932  0.90184140  0.84629273     0.29000
H1013       H  0.84622090  0.86690851  0.80052967     0.19600
H1014       H  0.99394590  0.87193414  0.80149135     0.19600
C1015       C  0.48650488  0.62481579  0.84109504    -0.06200
C1016       C  0.51979531  0.63627242  0.85447686    -0.17300
C1017       C  0.51076449  0.60682139  0.86911038     0.11000
C1018       C  0.46779486  0.56413405  0.87028055    -0.06100
C1019       C  0.43483496  0.55262530  0.85674588    -0.17300
C1020       C  0.44379195  0.58204304  0.84218890     0.11000
S1021       S  0.55428977  0.62719182  0.88626951    -0.32300
S1022       S  0.39967212  0.56226466  0.82523161    -0.32300
H1023       H  0.43027733  0.58400690  0.81104537     0.29000
H1024       H  0.52260181  0.61263937  0.90023961     0.29000
H1025       H  0.55242283  0.66928559  0.85385950     0.19600
H1026       H  0.40198220  0.51982217  0.85729068     0.19600
C1027       C  0.58263548  0.72204721  0.78991396    -0.06200
C1028       C  0.61857695  0.76892094  0.78937328    -0.17300
C1029       C  0.65831474  0.78373700  0.77931216     0.11000
C1030       C  0.66208821  0.75121607  0.76912138    -0.06100
C1031       C  0.62548166  0.70450446  0.76935729    -0.17300
C1032       C  0.58574038  0.68975765  0.77938155     0.11000
S1033       S  0.70426641  0.84378759  0.78119906    -0.32300
S1034       S  0.53981772  0.62947558  0.77788441    -0.32300
H1035       H  0.50347267  0.63686645  0.78048014     0.29000
H1036       H  0.73947861  0.83416426  0.78306605     0.29000
H1037       H  0.61655731  0.79385994  0.79748067     0.19600
H1038       H  0.62763811  0.67925039  0.76151491     0.19600
C1039       C  0.58130615  0.22286961  0.69256785    -0.06200
C1040       C  0.58702039  0.22346102  0.71102134    -0.17300
C1041       C  0.54903577  0.19760656  0.72217359     0.11000
C1042       C  0.50412177  0.17125120  0.71475824    -0.06100
C1043       C  0.49850529  0.17145725  0.69633314    -0.17300
C1044       C  0.53636667  0.19734987  0.68522581     0.11000
S1045       S  0.56057322  0.19727248  0.74551154    -0.32300
S1046       S  0.52495377  0.19704156  0.66183849    -0.32300
H1047       H  0.56247000  0.24224451  0.65835601     0.29000
H1048       H  0.52660908  0.15013603  0.74823978     0.29000
H1049       H  0.62149648  0.24274079  0.71671591     0.19600
H1050       H  0.46416082  0.15177871  0.69053841     0.19600
C1051       C  0.32365917  0.12536427  0.78801886    -0.06200
C1052       C  0.32974223  0.16966175  0.78753742    -0.17300
C1053       C  0.30778543  0.18230165  0.79970459     0.11000
C1054       C  0.27981820  0.15043030  0.81306907    -0.06100
C1055       C  0.27451883  0.10654544  0.81376827    -0.17300
C1056       C  0.29645161  0.09392402  0.80163810     0.11000
S1057       S  0.31488425  0.23856564  0.79677765    -0.32300
S1058       S  0.28979497  0.03795878  0.80484838    -0.32300
H1059       H  0.33613186  0.05382966  0.80098562     0.29000
H1060       H  0.27008398  0.22467385  0.80222735     0.29000
H1061       H  0.35019608  0.19402090  0.77713888     0.19600
H1062       H  0.25382225  0.08216500  0.82412789     0.19600
C1063       C  0.54610444  0.93797522  0.83989478    -0.06200
C1064       C  0.53887044  0.91498152  0.85626375    -0.17300
C1065       C  0.57091021  0.93484472  0.87019962     0.11000
C1066       C  0.61072154  0.97962407  0.86802731    -0.06100
C1067       C  0.61757285  0.00324555  0.85186906    -0.17300
C1068       C  0.58656448  0.98252973  0.83766622     0.11000
S1069       S  0.55937642  0.90342553  0.89092244    -0.32300
S1070       S  0.60245439  0.01359109  0.81684388    -0.32300
H1071       H  0.58339360  0.97374375  0.80624478     0.29000
H1072       H  0.51979012  0.86181430  0.88528191     0.29000
H1073       H  0.50763558  0.88129099  0.85817198     0.19600
H1074       H  0.64851549  0.03727132  0.85001013     0.19600
C1075       C  0.41751413  0.99309812  0.77142858    -0.06200
C1076       C  0.38325418  0.95256453  0.78003775    -0.17300
C1077       C  0.39475746  0.92609140  0.79083110     0.11000
C1078       C  0.44160025  0.93960264  0.79275184    -0.06100
C1079       C  0.47559567  0.97938717  0.78370046    -0.17300
C1080       C  0.46414064  0.00582294  0.77298746     0.11000
S1081       S  0.34833480  0.87730902  0.80255228    -0.32300
S1082       S  0.51057643  0.05431109  0.76114745    -0.32300
H1083       H  0.48415574  0.04894544  0.74587331     0.29000
H1084       H  0.37463952  0.88136640  0.81768846     0.29000
H1085       H  0.34744811  0.94265524  0.77904827     0.19600
H1086       H  0.51147766  0.98953948  0.78474816     0.19600
C1087       C  0.18656420  0.70376227  0.86286111    -0.06200
C1088       C  0.18680937  0.66279528  0.86543482    -0.17300
C1089       C  0.20635938  0.64815296  0.85294730     0.11000
C1090       C  0.22526498  0.67439241  0.83727208    -0.06100
C1091       C  0.22325970  0.71416973  0.83434520    -0.17300
C1092       C  0.20379422  0.72892045  0.84683307     0.11000
S1093       S  0.20789969  0.59696740  0.85816694    -0.32300
S1094       S  0.19944913  0.77868720  0.84173864    -0.32300
H1095       H  0.21654614  0.78625633  0.82439775     0.29000
H1096       H  0.25044450  0.61209628  0.85002983     0.29000
H1097       H  0.17339851  0.64303401  0.87760274     0.19600
H1098       H  0.23726316  0.73379399  0.82219805     0.19600
C1099       C  0.17257056  0.48942268  0.76900264    -0.06200
C1100       C  0.15886679  0.52171208  0.76976032    -0.17300
C1101       C  0.18372402  0.56237031  0.77970176     0.11000
C1102       C  0.22269569  0.57077972  0.78977788    -0.06100
C1103       C  0.23648843  0.53848604  0.78904831    -0.17300
C1104       C  0.21172911  0.49788128  0.77895583     0.11000
S1105       S  0.16502053  0.60304579  0.77821064    -0.32300
S1106       S  0.23030547  0.45713888  0.78018977    -0.32300
H1107       H  0.18532207  0.41742594  0.78073885     0.29000
H1108       H  0.20959824  0.64314682  0.77939237     0.29000
H1109       H  0.12922703  0.51594792  0.76207530     0.19600
H1110       H  0.26600060  0.54427003  0.79682356     0.19600
C1111       C  0.04535616  0.26334623  0.77877945    -0.06200
C1112       C  0.07804022  0.27529113  0.79244439    -0.17300
C1113       C  0.06761808  0.24802754  0.80774498     0.11000
C1114       C  0.02380585  0.20668857  0.80940486    -0.06100
C1115       C  0.99077788  0.19483701  0.79588582    -0.17300
C1116       C  0.00113586  0.22239912  0.78057698     0.11000
S1117       S  0.11131941  0.26878890  0.82490599    -0.32300
S1118       S  0.95747362  0.20185439  0.76346955    -0.32300
H1119       H  0.98871366  0.21443934  0.74944827     0.29000
H1120       H  0.08023376  0.25006563  0.83909725     0.29000
H1121       H  0.11175452  0.30700246  0.79144807     0.19600
H1122       H  0.95729694  0.16286944  0.79694117     0.19600
C1123       C  0.94663259  0.43459361  0.69121880    -0.06200
C1124       C  0.93150301  0.38722978  0.69155888    -0.17300
C1125       C  0.95769993  0.37149382  0.69998258     0.11000
C1126       C  0.99969895  0.40363446  0.70861867    -0.06100
C1127       C  0.01408208  0.45078067  0.70860884    -0.17300
C1128       C  0.98786905  0.46643701  0.70032091     0.11000
S1129       S  0.93730072  0.31070510  0.69809362    -0.32300
S1130       S  0.00851371  0.52739446  0.70225533    -0.32300
H1131       H  0.96456666  0.52169325  0.70179298     0.29000
H1132       H  0.98124804  0.31810280  0.69488377     0.29000
H1133       H  0.90018431  0.36262182  0.68449019     0.19600
H1134       H  0.04572791  0.47569666  0.71543391     0.19600
C1135       C  0.21671870  0.02694504  0.67379146    -0.06200
C1136       C  0.20495191  0.99508831  0.68780415    -0.17300
C1137       C  0.23449747  0.00511605  0.70237275     0.11000
C1138       C  0.27765900  0.04765711  0.70290666    -0.06100
C1139       C  0.28935603  0.07958054  0.68888968    -0.17300
C1140       C  0.25977827  0.06955002  0.67431323     0.11000
S1141       S  0.21371316  0.96338841  0.72027059    -0.32300
S1142       S  0.27985645  0.11178167  0.65655453    -0.32300
H1143       H  0.25719371  0.07937118  0.64292161     0.29000
H1144       H  0.23026708  0.99697629  0.73368245     0.29000
H1145       H  0.17163736  0.96269996  0.68768687     0.19600
H1146       H  0.32247158  0.11216878  0.68903043     0.19600
C1147       C  0.08792915  0.83885727  0.60651606    -0.06200
C1148       C  0.08670791  0.83568692  0.62508333    -0.17300
C1149       C  0.09636117  0.87357125  0.63559288     0.11000
C1150       C  0.10960706  0.91672943  0.62749537    -0.06100
C1151       C  0.10972636  0.91956329  0.60893964    -0.17300
C1152       C  0.09936753  0.88149037  0.59842879     0.11000
S1153       S  0.08912382  0.86383742  0.65917447    -0.32300
S1154       S  0.10451249  0.89077603  0.57483580    -0.32300
H1155       H  0.12757901  0.86711039  0.57233431     0.29000
H1156       H  0.07671100  0.89660961  0.66216630     0.29000
H1157       H  0.07695576  0.80298968  0.63148700     0.19600
H1158       H  0.12012378  0.95242838  0.60254039     0.19600
C1159       C  0.99091799  0.60584472  0.61640422    -0.06200
C1160       C  0.97017580  0.61387682  0.63060947    -0.17300
C1161       C  0.94999683  0.58181138  0.64443173     0.11000
C1162       C  0.94897078  0.53971057  0.64384468    -0.06100
C1163       C  0.97027550  0.53181476  0.62977090    -0.17300
C1164       C  0.99099252  0.56426888  0.61599659     0.11000
S1165       S  0.92735607  0.59735405  0.66265569    -0.32300
S1166       S  0.01427154  0.54928899  0.59786202    -0.32300
H1167       H  0.00002119  0.56869823  0.58461982     0.29000
H1168       H  0.93701449  0.57368776  0.67572910     0.29000
H1169       H  0.97066593  0.64602882  0.63116585     0.19600
H1170       H  0.96920308  0.49937041  0.62917324     0.19600
C1171       C  0.25374633  0.77627509  0.52613449    -0.06200
C1172       C  0.25211835  0.81138605  0.53505144    -0.17300
C1173       C  0.21549849  0.80094567  0.54627668     0.11000
C1174       C  0.18005780  0.75413343  0.54902770    -0.06100
C1175       C  0.18257790  0.71883115  0.54071786    -0.17300
C1176       C  0.21829500  0.72937366  0.52898766     0.11000
S1177       S  0.21529442  0.84761646  0.55741895    -0.32300
S1178       S  0.21462584  0.68170074  0.51718481    -0.32300
H1179       H  0.23318944  0.70652728  0.50131209     0.29000
H1180       H  0.25285152  0.88448638  0.54835368     0.29000
H1181       H  0.27975009  0.84722732  0.53314492     0.19600
H1182       H  0.15504058  0.68286684  0.54255316     0.19600
C1183       C  0.16684294  0.28840867  0.66393998    -0.06200
C1184       C  0.12663116  0.28974045  0.66189904    -0.17300
C1185       C  0.11293604  0.30882642  0.67492652     0.11000
C1186       C  0.13950173  0.32638933  0.69064075    -0.06100
C1187       C  0.18097651  0.32718628  0.69226591    -0.17300
C1188       C  0.19452112  0.30779759  0.67926672     0.11000
S1189       S  0.06165903  0.31035894  0.67053905    -0.32300
S1190       S  0.24572532  0.30608945  0.68359209    -0.32300
H1191       H  0.22906578  0.26242492  0.67593873     0.29000
H1192       H  0.07747078  0.35256420  0.67930037     0.29000
H1193       H  0.10546865  0.27533924  0.65009734     0.19600
H1194       H  0.20164160  0.34052970  0.70423214     0.19600
C1195       C  0.26667793  0.28575348  0.61623390    -0.06200
C1196       C  0.29991837  0.27327589  0.61665313    -0.17300
C1197       C  0.34135738  0.29880882  0.60719980     0.11000
C1198       C  0.34977571  0.33747643  0.59674216    -0.06100
C1199       C  0.31594010  0.34907504  0.59600277    -0.17300
C1200       C  0.27451481  0.32343770  0.60531548     0.11000
S1201       S  0.38314759  0.28210407  0.61006110    -0.32300
S1202       S  0.23254165  0.33989578  0.60220803    -0.32300
H1203       H  0.19353062  0.29475328  0.60416068     0.29000
H1204       H  0.42100208  0.32784612  0.61223401     0.29000
H1205       H  0.29444492  0.24461223  0.62501661     0.19600
H1206       H  0.32147717  0.37809885  0.58784921     0.19600
C1207       C  0.64171116  0.49194129  0.64238014    -0.06200
C1208       C  0.65365996  0.52482250  0.62873570    -0.17300
C1209       C  0.62353112  0.51655440  0.61444149     0.11000
C1210       C  0.58055736  0.47361158  0.61333211    -0.06100
C1211       C  0.56845645  0.44139657  0.62732859    -0.17300
C1212       C  0.59789922  0.45033711  0.64183759     0.11000
S1213       S  0.64230446  0.56239803  0.59825870    -0.32300
S1214       S  0.57696576  0.40752107  0.65940731    -0.32300
H1215       H  0.60064498  0.43929057  0.67314687     0.29000
H1216       H  0.60110152  0.56236766  0.59901093     0.29000
H1217       H  0.68700195  0.55712527  0.62914139     0.19600
H1218       H  0.53548527  0.40870876  0.62708983     0.19600
C1219       C  0.40655705  0.56604377  0.52280760    -0.06200
C1220       C  0.42976943  0.54919448  0.51345406    -0.17300
C1221       C  0.44990488  0.52753316  0.52219526     0.11000
C1222       C  0.44592370  0.52116033  0.54076010    -0.06100
C1223       C  0.42418820  0.53958616  0.55020993    -0.17300
C1224       C  0.40411875  0.56147196  0.54145652     0.11000
S1225       S  0.48194054  0.51071126  0.50895440    -0.32300
S1226       S  0.37381632  0.58046994  0.55475122    -0.32300
H1227       H  0.33977573  0.57181881  0.54200745     0.29000
H1228       H  0.51553681  0.52056896  0.52208268     0.29000
H1229       H  0.43281450  0.55359067  0.49920694     0.19600
H1230       H  0.42068835  0.53479073  0.56442946     0.19600
C1231       C  0.90386380  0.96460753  0.67327298    -0.06200
C1232       C  0.92501911  0.97311509  0.69006741    -0.17300
C1233       C  0.90378467  0.94180268  0.70425738     0.11000
C1234       C  0.85965837  0.90107171  0.70177920    -0.06100
C1235       C  0.83825966  0.89294696  0.68507854    -0.17300
C1236       C  0.86015187  0.92335852  0.67078932     0.11000
S1237       S  0.93273689  0.95551277  0.72555623    -0.32300
S1238       S  0.83156450  0.90565771  0.64953777    -0.32300
H1239       H  0.87240848  0.92469453  0.63966850     0.29000
H1240       H  0.97341138  0.99677474  0.72039577     0.29000
H1241       H  0.95819192  0.00483887  0.69210369     0.19600
H1242       H  0.80496227  0.86140845  0.68288718     0.19600
C1243       C  0.84485921  0.08690431  0.60358636    -0.06200
C1244       C  0.88600547  0.12208638  0.61160512    -0.17300
C1245       C  0.91367970  0.11167470  0.62212816     0.11000
C1246       C  0.90103576  0.06495665  0.62438132    -0.06100
C1247       C  0.86121187  0.03001348  0.61573549    -0.17300
C1248       C  0.83308702  0.04021995  0.60542123     0.11000
S1249       S  0.96305263  0.15939233  0.63309355    -0.32300
S1250       S  0.78330948  0.99302394  0.59436914    -0.32300
H1251       H  0.78749457  0.95655891  0.60109277     0.29000
H1252       H  0.95972826  0.13447385  0.64860865     0.29000
H1253       H  0.89572981  0.15798648  0.61034005     0.19600
H1254       H  0.85219029  0.99437031  0.61712844     0.19600
C1255       C  0.70510684  0.17159678  0.62085682    -0.06200
C1256       C  0.73854515  0.20116726  0.63336174    -0.17300
C1257       C  0.72848046  0.22289364  0.64661050     0.11000
C1258       C  0.68420578  0.21690501  0.64721619    -0.06100
C1259       C  0.65010322  0.18595130  0.63525163    -0.17300
C1260       C  0.65966647  0.16272243  0.62240350     0.11000
S1261       S  0.77359482  0.25691691  0.66256835    -0.32300
S1262       S  0.61246689  0.12346732  0.60819307    -0.32300
H1263       H  0.61815418  0.08604051  0.61191690     0.29000
H1264       H  0.74365921  0.24770198  0.67677463     0.29000
H1265       H  0.77316563  0.20756577  0.63288262     0.19600
H1266       H  0.61579771  0.18040659  0.63569378     0.19600
C1267       C  0.61390411  0.93010720  0.51935608    -0.06200
C1268       C  0.65274320  0.93496556  0.52810989    -0.17300
C1269       C  0.67792993  0.97020495  0.54038207     0.11000
C1270       C  0.66490594  0.00241484  0.54401181    -0.06100
C1271       C  0.62565935  0.99735876  0.53550515    -0.17300
C1272       C  0.60046032  0.96210909  0.52306865     0.11000
S1273       S  0.72475245  0.97043359  0.55174330    -0.32300
S1274       S  0.55318803  0.96154984  0.51182978    -0.32300
H1275       H  0.55717066  0.94304312  0.49592032     0.29000
H1276       H  0.71558793  0.98322922  0.56804566     0.29000
H1277       H  0.66270841  0.91000402  0.52583087     0.19600
H1278       H  0.61569331  0.02222078  0.53799843     0.19600
C1279       C  0.82360443  0.29800652  0.50701576    -0.06200
C1280       C  0.82696976  0.25896491  0.50449462    -0.17300
C1281       C  0.81554178  0.22581285  0.51794820     0.11000
C1282       C  0.79985621  0.23118536  0.53442484    -0.06100
C1283       C  0.79699920  0.27039019  0.53704874    -0.17300
C1284       C  0.81008058  0.30443534  0.52385653     0.11000
S1285       S  0.81949857  0.17632728  0.51289031    -0.32300
S1286       S  0.81155792  0.35646921  0.52987400    -0.32300
H1287       H  0.84979225  0.38659967  0.51929665     0.29000
H1288       H  0.77857475  0.14373437  0.52163615     0.29000
H1289       H  0.83722663  0.25338477  0.49173383     0.19600
H1290       H  0.78599895  0.27539223  0.54975810     0.19600
C1291       C  0.00547879  0.42436955  0.43688504    -0.06200
C1292       C  0.96378734  0.41152162  0.42815487    -0.17300
C1293       C  0.92284922  0.39559699  0.43760490     0.11000
C1294       C  0.92388786  0.39506766  0.45635620    -0.06100
C1295       C  0.96600893  0.40948377  0.46501994    -0.17300
C1296       C  0.00635496  0.42307977  0.45557497     0.11000
S1297       S  0.87019549  0.37335896  0.42489376    -0.32300
S1298       S  0.05886310  0.43984881  0.46769398    -0.32300
H1299       H  0.03871226  0.42458126  0.48447082     0.29000
H1300       H  0.84206868  0.33761989  0.43691967     0.29000
H1301       H  0.96253216  0.41146799  0.41381699     0.19600
H1302       H  0.96719574  0.40988322  0.47933998     0.19600
C1303       C  0.23591858  0.62999757  0.33685357    -0.06200
C1304       C  0.25532179  0.64031857  0.35393192    -0.17300
C1305       C  0.23355568  0.60955681  0.36809427     0.11000
C1306       C  0.19134023  0.56707793  0.36521648    -0.06100
C1307       C  0.17146649  0.55709628  0.34821487    -0.17300
C1308       C  0.19364188  0.58755860  0.33397160     0.11000
S1309       S  0.26072719  0.62730319  0.38958408    -0.32300
S1310       S  0.16758587  0.56896491  0.31233778    -0.32300
H1311       H  0.20936569  0.59105803  0.30295937     0.29000
H1312       H  0.21924726  0.60594916  0.39914958     0.29000
H1313       H  0.28739015  0.67306023  0.35631625     0.19600
H1314       H  0.13951594  0.52426297  0.34582573     0.19600
C1315       C  0.22808542  0.51693136  0.44936077    -0.06200
C1316       C  0.26893962  0.51640520  0.44855227    -0.17300
C1317       C  0.30376887  0.53847161  0.46145494     0.11000
C1318       C  0.29661278  0.55916808  0.47613890    -0.06100
C1319       C  0.25523824  0.55841383  0.47720737    -0.17300
C1320       C  0.22135386  0.53837743  0.46391065     0.11000
S1321       S  0.35765397  0.54204839  0.45770114    -0.32300
S1322       S  0.16960183  0.54010091  0.46597850    -0.32300
H1323       H  0.18193707  0.56583350  0.48169715     0.29000
H1324       H  0.38601271  0.58690139  0.46468208     0.29000
H1325       H  0.27486653  0.50088765  0.43729748     0.19600
H1326       H  0.24990465  0.57434471  0.48845798     0.19600
C1327       C  0.90789461  0.12613061  0.28029883    -0.06200
C1328       C  0.95009840  0.16907801  0.27965012    -0.17300
C1329       C  0.98376644  0.18191341  0.29288556     0.11000
C1330       C  0.97491828  0.15146925  0.30732187    -0.06100
C1331       C  0.93251389  0.10900116  0.30814488    -0.17300
C1332       C  0.89875231  0.09633611  0.29503596     0.11000
S1333       S  0.03775423  0.23660110  0.29014346    -0.32300
S1334       S  0.84410453  0.04288465  0.29851846    -0.32300
H1335       H  0.81741161  0.06139747  0.29309997     0.29000
H1336       H  0.06564045  0.22239226  0.29827008     0.29000
H1337       H  0.95759583  0.19225876  0.26846111     0.19600
H1338       H  0.92521058  0.08593778  0.31936818     0.19600
C1339       C  0.06910101  0.25255766  0.35772666    -0.06200
C1340       C  0.03386913  0.25676882  0.36500097    -0.17300
C1341       C  0.04386699  0.29455606  0.37553535     0.11000
C1342       C  0.09044144  0.32983217  0.37887899    -0.06100
C1343       C  0.12574809  0.32496088  0.37207579    -0.17300
C1344       C  0.11569239  0.28729616  0.36134396     0.11000
S1345       S  0.99542403  0.29466768  0.38469362    -0.32300
S1346       S  0.16388998  0.28742660  0.35180832    -0.32300
H1347       H  0.14169323  0.26743458  0.33565171     0.29000
H1348       H  0.01666814  0.31209531  0.40124051     0.29000
H1349       H  0.99802140  0.22998874  0.36258062     0.19600
H1350       H  0.16157328  0.35187885  0.37441219     0.19600
C1351       C  0.88358411  0.61017154  0.50621908    -0.06200
C1352       C  0.92681050  0.61511536  0.50431279    -0.17300
C1353       C  0.96186572  0.63812595  0.51704957     0.11000
C1354       C  0.95342718  0.65583192  0.53243005    -0.06100
C1355       C  0.91042174  0.65160835  0.53412931    -0.17300
C1356       C  0.87540036  0.62858131  0.52139200     0.11000
S1357       S  0.01696515  0.64517453  0.51247257    -0.32300
S1358       S  0.82029195  0.62173392  0.52578364    -0.32300
H1359       H  0.79330643  0.57751940  0.51815241     0.29000
H1360       H  0.04325995  0.69087024  0.51890567     0.29000
H1361       H  0.93353181  0.60150855  0.49263746     0.19600
H1362       H  0.90324645  0.66463347  0.54586118     0.19600
C1363       C  0.73574107  0.65274461  0.44197388    -0.06200
C1364       C  0.74566360  0.62318647  0.43301484    -0.17300
C1365       C  0.76503577  0.60080505  0.44185253     0.11000
C1366       C  0.77301560  0.60621144  0.46038009    -0.06100
C1367       C  0.76153457  0.63458554  0.46941559    -0.17300
C1368       C  0.74296773  0.65760957  0.46048975     0.11000
S1369       S  0.78200058  0.56899043  0.42836013    -0.32300
S1370       S  0.72771917  0.69135561  0.47359740    -0.32300
H1371       H  0.68887222  0.68089033  0.46322820     0.29000
H1372       H  0.82206797  0.58110156  0.43823661     0.29000
H1373       H  0.74091909  0.61968540  0.41879309     0.19600
H1374       H  0.76646905  0.63836887  0.48362298     0.19600
C1375       C  0.54192314  0.68117947  0.33780291    -0.06200
C1376       C  0.53042421  0.68903339  0.35460329    -0.17300
C1377       C  0.55830047  0.69590855  0.36944735     0.11000
C1378       C  0.59926436  0.69550754  0.36761109    -0.06100
C1379       C  0.61027356  0.68656661  0.35092650    -0.17300
C1380       C  0.58268020  0.68023770  0.33600782     0.11000
S1381       S  0.53864612  0.70323668  0.39044596    -0.32300
S1382       S  0.60318749  0.67411716  0.31498439    -0.32300
H1383       H  0.58595942  0.69703758  0.30498261     0.29000
H1384       H  0.55503626  0.67942110  0.40037610     0.29000
H1385       H  0.49883553  0.68884606  0.35626271     0.19600
H1386       H  0.64194603  0.68690010  0.34930254     0.19600
C1387       C  0.64959421  0.79007401  0.44990115    -0.06200
C1388       C  0.65335906  0.83295184  0.44696622    -0.17300
C1389       C  0.63216981  0.84861396  0.45819394     0.11000
C1390       C  0.60807978  0.82183820  0.47320669    -0.06100
C1391       C  0.60526099  0.77958209  0.47639246    -0.17300
C1392       C  0.62539671  0.76323913  0.46493523     0.11000
S1393       S  0.63491792  0.90154331  0.45204130    -0.32300
S1394       S  0.62105219  0.70891850  0.47013366    -0.32300
H1395       H  0.59496735  0.69836460  0.48565860     0.29000
H1396       H  0.59095899  0.88791796  0.45844628     0.29000
H1397       H  0.67123710  0.85354009  0.43537472     0.19600
H1398       H  0.58708110  0.75933069  0.48799103     0.19600
C1399       C  0.01861807  0.88608132  0.31397398    -0.06200
C1400       C  0.98484817  0.85757570  0.30144405    -0.17300
C1401       C  0.99431008  0.83566571  0.28804539     0.11000
C1402       C  0.03932520  0.84352584  0.28656912    -0.06100
C1403       C  0.07250722  0.87085158  0.29954761    -0.17300
C1404       C  0.06251740  0.89138880  0.31331928     0.11000
S1405       S  0.94752705  0.79905935  0.27319414    -0.32300
S1406       S  0.10557483  0.92272428  0.33035318    -0.32300
H1407       H  0.13876009  0.91366117  0.32426557     0.29000
H1408       H  0.95077356  0.76004484  0.27669555     0.29000
H1409       H  0.95083451  0.85272611  0.30197080     0.19600
H1410       H  0.10666169  0.87619674  0.29893827     0.19600
C1411       C  0.91383027  0.88458727  0.36032019    -0.06200
C1412       C  0.90871763  0.84789621  0.37093609    -0.17300
C1413       C  0.87001552  0.82179377  0.38168731     0.11000
C1414       C  0.83481806  0.83197595  0.38184090    -0.06100
C1415       C  0.84034427  0.86933417  0.37152695    -0.17300
C1416       C  0.87887085  0.89509764  0.36056766     0.11000
S1417       S  0.86845901  0.77688536  0.39528577    -0.32300
S1418       S  0.87978495  0.93879226  0.34640243    -0.32300
H1419       H  0.90190470  0.93241193  0.33217253     0.29000
H1420       H  0.84828033  0.78435273  0.40993086     0.29000
H1421       H  0.93552193  0.83987217  0.37102933     0.19600
H1422       H  0.81334948  0.87708249  0.37132444     0.19600
C1423       C  0.56132896  0.34474441  0.50071216    -0.06200
C1424       C  0.56638868  0.38842977  0.49931332    -0.17300
C1425       C  0.54848463  0.40384501  0.51205719     0.11000
C1426       C  0.52482418  0.37523018  0.52679081    -0.06100
C1427       C  0.51767240  0.33050794  0.52778397    -0.17300
C1428       C  0.53639929  0.31531787  0.51511967     0.11000
S1429       S  0.55604896  0.45998132  0.50844808    -0.32300
S1430       S  0.53017663  0.25968980  0.51882856    -0.32300
H1431       H  0.57423887  0.27305888  0.51262057     0.29000
H1432       H  0.51186602  0.44584272  0.51470047     0.29000
H1433       H  0.58492868  0.41101772  0.48820650     0.19600
H1434       H  0.49962837  0.30824970  0.53901467     0.19600
C1435       C  0.51359321  0.16718498  0.42964529    -0.06200
C1436       C  0.54932393  0.17118662  0.44048206    -0.17300
C1437       C  0.57308781  0.20791343  0.45241449     0.11000
C1438       C  0.56185671  0.24239134  0.45332136    -0.06100
C1439       C  0.52689081  0.23895889  0.44222034    -0.17300
C1440       C  0.50313827  0.20231329  0.43031339     0.11000
S1441       S  0.61542668  0.20722710  0.46677080    -0.32300
S1442       S  0.46109369  0.20352326  0.41595624    -0.32300
H1443       H  0.47194979  0.18675724  0.40108027     0.29000
H1444       H  0.60789101  0.22771213  0.48130655     0.29000
H1445       H  0.55732988  0.14427826  0.44030476     0.19600
H1446       H  0.51870281  0.26573162  0.44255510     0.19600
C1447       C  0.50181773  0.94343779  0.33577995    -0.06200
C1448       C  0.50091548  0.98344627  0.33176821    -0.17300
C1449       C  0.48648555  0.00321075  0.34427034     0.11000
C1450       C  0.47335601  0.98313978  0.36138118    -0.06100
C1451       C  0.47517328  0.94367170  0.36543977    -0.17300
C1452       C  0.48997312  0.92422657  0.35304386     0.11000
S1453       S  0.48250606  0.05183403  0.33711493    -0.32300
S1454       S  0.49427407  0.87575729  0.36031920    -0.32300
H1455       H  0.53168617  0.88616288  0.34941334     0.29000
H1456       H  0.44025675  0.03640012  0.34558826     0.29000
H1457       H  0.50952391  0.99818596  0.31853988     0.19600
H1458       H  0.46589431  0.92832562  0.37856361     0.19600
C1459       C  0.37582916  0.93802313  0.44714944    -0.06200
C1460       C  0.40825502  0.94721454  0.46069917    -0.17300
C1461       C  0.39708630  0.91778565  0.47535714     0.11000
C1462       C  0.35285006  0.87687103  0.47641169    -0.06100
C1463       C  0.31972674  0.86831067  0.46334397    -0.17300
C1464       C  0.33035466  0.89862275  0.44893093     0.11000
S1465       S  0.44074540  0.93480120  0.49235451    -0.32300
S1466       S  0.28437856  0.88413673  0.43331564    -0.32300
H1467       H  0.28895288  0.92769833  0.43469359     0.29000
H1468       H  0.40969814  0.91381596  0.50646171     0.29000
H1469       H  0.44283809  0.97777203  0.45997160     0.19600
H1470       H  0.28551617  0.83720117  0.46418604     0.19600
C1471       C  0.28637803  0.21181847  0.31539139    -0.06200
C1472       C  0.31144711  0.20384647  0.30287757    -0.17300
C1473       C  0.33277626  0.23402917  0.28850814     0.11000
C1474       C  0.32958768  0.27372813  0.28653934    -0.06100
C1475       C  0.30571818  0.28240649  0.29935890    -0.17300
C1476       C  0.28489034  0.25255499  0.31383713     0.11000
S1477       S  0.36055910  0.21793889  0.27260108    -0.32300
S1478       S  0.25828347  0.26933677  0.33006922    -0.32300
H1479       H  0.26649518  0.24812184  0.34455219     0.29000
H1480       H  0.34132889  0.22745043  0.25779663     0.29000
H1481       H  0.31254045  0.17255506  0.30379811     0.19600
H1482       H  0.30385243  0.31323902  0.29825814     0.19600
C1483       C  0.27364692  0.09248929  0.35831526    -0.06200
C1484       C  0.27169076  0.08874610  0.37681504    -0.17300
C1485       C  0.29526160  0.07150315  0.38616781     0.11000
C1486       C  0.32299363  0.05919543  0.37685808    -0.06100
C1487       C  0.32282441  0.06088087  0.35827208    -0.17300
C1488       C  0.29780601  0.07632716  0.34895143     0.11000
S1489       S  0.29000075  0.06834796  0.40988194    -0.32300
S1490       S  0.29780830  0.07414127  0.32511635    -0.32300
H1491       H  0.25324667  0.06626213  0.32270756     0.29000
H1492       H  0.27483237  0.02087940  0.41060509     0.29000
H1493       H  0.25245972  0.10031626  0.38405777     0.19600
H1494       H  0.34261514  0.05029744  0.35085217     0.19600
loop_ 
_geom_bond_atom_site_label_1 
_geom_bond_atom_site_label_2 
_geom_bond_distance 
_geom_bond_site_symmetry_2 
_ccdc_geom_bond_type 
C1            C2   1.404       .  A
C1            C6   1.402       .  A
C1         C1483   1.477       .  S
C2            C3   1.403       .  A
C2            H7   1.084       .  S
C3            C4   1.404       .  A
C3         C1471   1.486       .  S
C4            C5   1.403       .  A
C4            H8   1.083       .  S
C5            C6   1.402       .  A
C5          C102   1.472       .  S
C6            H9   1.084       .  S
O10          C13   1.265       .  A
O10         Cd15   2.446       .  S
C11        C1459   1.488       .  S
C11          O20   1.265   1_565  A
C11          O16   1.265       .  A
O12          C18   1.267       .  A
O12         Cd15   2.491       .  S
C13        C1486   1.484       .  S
C13          O21   1.263       .  A
C14        C1435   1.483       .  S
C14          O19   1.268       .  A
C14          O17   1.262       .  A
Cd15         O22   2.461   1_545  S
Cd15         O21   2.463       .  S
Cd15         O20   2.443       .  S
Cd15         O16   2.467   1_545  S
Cd15         O19   2.496       .  S
Cd15         O17   2.438       .  S
C18        C1450   1.483   1_545  S
C18          O22   1.265   1_545  A
C23          C24   1.400       .  A
C23          C28   1.405       .  A
C23        C1423   1.483       .  S
C24          C25   1.399       .  A
C24          H29   1.084       .  S
C25          C26   1.403       .  A
C25          C36   1.473       .  S
C26          C27   1.407       .  A
C26          H30   1.084       .  S
C27          C28   1.409       .  A
C27        C1438   1.484       .  S
C28          H31   1.084       .  S
C32          C95   1.471       .  S
C32          N33   1.360       .  A
C32          N37   1.359       .  A
N33          C34   1.360       .  A
C34          C62   1.476       .  S
C34          N35   1.357       .  A
N35          C36   1.358       .  A
C36          N37   1.357       .  A
C38          C39   1.404       .  A
C38          C43   1.405   1_455  A
C38        C1399   1.491       .  S
C39          C40   1.403       .  A
C39          H44   1.084       .  S
C40          C41   1.404   1_455  A
C40         C104   1.476   1_565  S
C41          C42   1.408       .  A
C41          H45   1.084       .  S
C42          C43   1.408       .  A
C42        C1411   1.488       .  S
C43          H46   1.084       .  S
O47          C50   1.265       .  A
O47         Cd52   2.504       .  S
C48        C1363   1.484       .  S
C48          O57   1.265       .  A
C48          O53   1.268       .  A
O49          C55   1.266       .  A
O49         Cd52   2.511       .  S
C50        C1378   1.482       .  S
C50          O58   1.261       .  A
C51        C1387   1.486       .  S
C51          O56   1.269       .  A
C51          O54   1.267       .  A
Cd52         O59   2.457       .  S
Cd52         O58   2.466       .  S
Cd52         O57   2.464       .  S
Cd52         O53   2.496       .  S
Cd52         O56   2.474       .  S
Cd52         O54   2.452       .  S
C55        C1414   1.484       .  S
C55          O59   1.262       .  A
C60          C61   1.406       .  A
C60          C65   1.409       .  A
C60        C1366   1.493       .  S
C61          C62   1.404       .  A
C61          H66   1.083       .  S
C62          C63   1.404       .  A
C63          C64   1.404       .  A
C63          H67   1.084       .  S
C64          C65   1.407       .  A
C64        C1351   1.485       .  S
C65          H68   1.084       .  S
C69          C70   1.399       .  A
C69          C74   1.400       .  A
C69        C1330   1.477   1_455  S
C70          C71   1.399       .  A
C70          H75   1.085       .  S
C71          C72   1.406       .  A
C71         C100   1.471       .  S
C72          C73   1.409       .  A
C72          H76   1.083       .  S
C73          C74   1.405       .  A
C73        C1339   1.486       .  S
C74          H77   1.084       .  S
O78          C81   1.269       .  A
O78         Cd83   2.482       .  S
C79        C1342   1.483       .  S
C79          O88   1.262       .  A
C79          O84   1.265       .  A
O80          C86   1.267       .  A
O80         Cd83   2.501       .  S
C81        C1315   1.483       .  S
C81          O89   1.266       .  A
C82        C1306   1.478       .  S
C82          O87   1.265       .  A
C82          O85   1.262       .  A
Cd83         O90   2.457       .  S
Cd83         O89   2.441       .  S
Cd83         O88   2.460       .  S
Cd83         O84   2.494       .  S
Cd83         O87   2.495       .  S
Cd83         O85   2.465       .  S
C86        C1291   1.484       .  S
C86          O90   1.264       .  A
C91          C92   1.406       .  A
C91          C96   1.403       .  A
C91        C1279   1.493       .  S
C92          C93   1.410       .  A
C92          H97   1.083       .  S
C93          C94   1.408       .  A
C93        C1294   1.491       .  S
C94          C95   1.404       .  A
C94          H98   1.084       .  S
C95          C96   1.401       .  A
C96          H99   1.084       .  S
C100        N101   1.356       .  A
C100        N105   1.362       .  A
N101        C102   1.357       .  A
C102        N103   1.358       .  A
N103        C104   1.359       .  A
C104        N105   1.359       .  A
C106        C107   1.401       .  A
C106        C111   1.406       .  A
C106       C1390   1.484       .  S
C107        C108   1.399       .  A
C107        H112   1.085       .  S
C108        C109   1.401       .  A
C108        C207   1.467       .  S
C109        C110   1.405       .  A
C109        H113   1.083       .  S
C110        C111   1.411       .  A
C110       C1267   1.488       .  S
C111        H114   1.083       .  S
O115        C118   1.264       .  A
O115       Cd120   2.500       .  S
C116       C1243   1.496       .  S
C116        O125   1.266       .  A
C116        O121   1.269       .  A
O117        C123   1.266       .  A
O117       Cd120   2.512       .  S
C118       C1282   1.483       .  S
C118        O126   1.263       .  A
C119       C1270   1.482       .  S
C119        O124   1.268       .  A
C119        O122   1.263       .  A
Cd120       O127   2.481       .  S
Cd120       O126   2.483       .  S
Cd120       O125   2.476       .  S
Cd120       O121   2.504       .  S
Cd120       O124   2.510       .  S
Cd120       O122   2.449       .  S
C123       C1255   1.501       .  S
C123        O127   1.266       .  A
C128        C129   1.407       .  A
C128        C133   1.407       .  A
C128       C1246   1.490       .  S
C129        C130   1.405       .  A
C129        H134   1.083       .  S
C130        C131   1.406       .  A
C130        C201   1.478   1_655  S
C131        C132   1.405   1_545  A
C131        H135   1.084       .  S
C132        C133   1.406   1_565  A
C132       C1231   1.494       .  S
C133        H136   1.083       .  S
C137        C138   1.408       .  A
C137        C142   1.406       .  A
C137       C1219   1.484       .  S
C138        C139   1.405       .  A
C138        H143   1.083       .  S
C139        C140   1.401       .  A
C139       C1318   1.483       .  S
C140        C141   1.398       .  A
C140        H144   1.085       .  S
C141        C142   1.404       .  A
C141        C209   1.470       .  S
C142        H145   1.084       .  S
O146        C149   1.266       .  A
O146       Cd151   2.518       .  S
C147       C1222   1.484       .  S
C147        O156   1.264       .  A
C147        O152   1.267       .  A
O148        C154   1.266       .  A
O148       Cd151   2.499       .  S
C149       C1210   1.497       .  S
C149        O157   1.262       .  A
C150       C1198   1.486       .  S
C150        O155   1.267       .  A
C150        O153   1.266       .  A
Cd151       O158   2.458       .  S
Cd151       O157   2.462       .  S
Cd151       O156   2.469       .  S
Cd151       O152   2.505       .  S
Cd151       O155   2.489       .  S
Cd151       O153   2.453       .  S
C154       C1426   1.483       .  S
C154        O158   1.265       .  A
C159        C160   1.404       .  A
C159        C164   1.400       .  A
C159       C1183   1.482       .  S
C160        C161   1.410       .  A
C160        H165   1.084       .  S
C161        C162   1.411       .  A
C161       C1195   1.490       .  S
C162        C163   1.408       .  A
C162        H166   1.083       .  S
C163        C164   1.402       .  A
C163        C203   1.479       .  S
C164        H167   1.084       .  S
C168        C169   1.398       .  A
C168        C173   1.400       .  A
C168       C1462   1.479       .  S
C169        C170   1.400       .  A
C169        H174   1.085       .  S
C170        C171   1.402       .  A
C170        C205   1.470       .  S
C171        C172   1.408       .  A
C171        H175   1.084       .  S
C172        C173   1.407       .  A
C172       C1171   1.482       .  S
C173        H176   1.084       .  S
O177        C180   1.267       .  A
O177       Cd182   2.492   1_655  S
C178       C1147   1.487       .  S
C178        O187   1.266       .  A
C178        O183   1.267       .  A
O179        C185   1.266       .  A
O179       Cd182   2.468       .  S
C180       C1354   1.486       .  S
C180        O188   1.262   1_655  A
C181       C1174   1.476       .  S
C181        O186   1.266       .  A
C181        O184   1.264       .  A
Cd182       O189   2.435   1_455  S
Cd182       O188   2.460       .  S
Cd182       O187   2.479       .  S
Cd182       O183   2.482       .  S
Cd182       O186   2.474       .  S
Cd182       O184   2.436       .  S
C185       C1159   1.472   1_455  S
C185        O189   1.265   1_455  A
C190        C191   1.403   1_545  A
C190        C195   1.403       .  A
C190       C1135   1.484       .  S
C191        C192   1.406       .  A
C191        H196   1.083       .  S
C192        C193   1.408       .  A
C192       C1150   1.491       .  S
C193        C194   1.406   1_565  A
C193        H197   1.084       .  S
C194        C195   1.402       .  A
C194        C199   1.475       .  S
C195        H198   1.084       .  S
C199        N200   1.358       .  A
C199        N204   1.362       .  A
N200        C201   1.358       .  A
C201        N202   1.359       .  A
N202        C203   1.361       .  A
C203        N204   1.360       .  A
C205        N206   1.357       .  A
C205        N210   1.359       .  A
N206        C207   1.354       .  A
C207        N208   1.357       .  A
N208        C209   1.357       .  A
C209        N210   1.361       .  A
C211        C212   1.409       .  A
C211        C216   1.405       .  A
C211       C1123   1.485       .  S
C212        C213   1.407       .  A
C212        H217   1.084       .  S
C213        C214   1.398       .  A
C213        C308   1.471       .  S
C214        C215   1.398       .  A
C214        H218   1.085       .  S
C215        C216   1.399       .  A
C215       C1162   1.476       .  S
C216        H219   1.084       .  S
O220        C223   1.268       .  A
O220       Cd225   2.481       .  S
C221       C1111   1.484       .  S
C221        O230   1.263       .  A
C221        O226   1.265       .  A
O222        C228   1.266       .  A
O222       Cd225   2.500       .  S
C223       C1126   1.483   1_455  S
C223        O231   1.267       .  A
C224       C1099   1.485       .  S
C224        O229   1.267       .  A
C224        O227   1.265       .  A
Cd225       O232   2.470       .  S
Cd225       O231   2.450       .  S
Cd225       O230   2.457       .  S
Cd225       O226   2.498       .  S
Cd225       O229   2.493       .  S
Cd225       O227   2.461       .  S
C228       C1186   1.484       .  S
C228        O232   1.264       .  A
C233        C234   1.400       .  A
C233        C238   1.404       .  A
C233       C1090   1.482       .  S
C234        C235   1.401       .  A
C234        H239   1.084       .  S
C235        C236   1.406       .  A
C235        C312   1.476       .  S
C236        C237   1.409       .  A
C236        H240   1.084       .  S
C237        C238   1.409       .  A
C237       C1102   1.490       .  S
C238        H241   1.083       .  S
C242        C243   1.408       .  A
C242        C247   1.407       .  A
C242       C1078   1.488       .  S
C243        C244   1.405       .  A
C243        H248   1.083       .  S
C244        C245   1.402       .  A
C244        C314   1.477       .  S
C245        C246   1.404       .  A
C245        H249   1.084       .  S
C246        C247   1.405       .  A
C246       C1063   1.491       .  S
C247        H250   1.083       .  S
O251        C254   1.267       .  A
O251       Cd256   2.495       .  S
C252       C1138   1.483       .  S
C252        O261   1.266       .  A
C252        O257   1.268       .  A
O253        C259   1.267       .  A
O253       Cd256   2.492       .  S
C254       C1075   1.482   1_545  S
C254        O262   1.264       .  A
C255       C1042   1.476       .  S
C255        O260   1.269       .  A
C255        O258   1.265       .  A
Cd256       O263   2.447       .  S
Cd256       O262   2.451       .  S
Cd256       O261   2.461       .  S
Cd256       O257   2.472       .  S
Cd256       O260   2.480       .  S
Cd256       O258   2.433       .  S
C259       C1051   1.484       .  S
C259        O263   1.263       .  A
C264        C265   1.407       .  A
C264        C269   1.406       .  A
C264       C1258   1.495       .  S
C265        C266   1.406       .  A
C265        H270   1.083       .  S
C266        C267   1.401       .  A
C266        C306   1.475       .  S
C267        C268   1.403       .  A
C267        H271   1.084       .  S
C268        C269   1.408       .  A
C268       C1039   1.479       .  S
C269        H272   1.084       .  S
C273        C274   1.404       .  A
C273        C278   1.404       .  A
C273       C1015   1.484       .  S
C274        C275   1.403       .  A
C274        H279   1.084       .  S
C275        C276   1.403       .  A
C275        C310   1.473       .  S
C276        C277   1.405       .  A
C276        H280   1.084       .  S
C277        C278   1.407       .  A
C277       C1027   1.484       .  S
C278        H281   1.084       .  S
O282        C285   1.266       .  A
O282       Cd287   2.496       .  S
C283       C1234   1.489       .  S
C283        O292   1.264       .  A
C283        O288   1.268       .  A
O284        C290   1.267       .  A
O284       Cd287   2.472       .  S
C285       C1030   1.486       .  S
C285        O293   1.264       .  A
C286        C991   1.489       .  S
C286        O291   1.267       .  A
C286        O289   1.265       .  A
Cd287       O294   2.467       .  S
Cd287       O293   2.476       .  S
Cd287       O292   2.468       .  S
Cd287       O288   2.492       .  S
Cd287       O291   2.509       .  S
Cd287       O289   2.467       .  S
C290       C1003   1.487       .  S
C290        O294   1.265       .  A
C295        C296   1.404       .  A
C295        C300   1.404       .  A
C295       C1207   1.487       .  S
C296        C297   1.407       .  A
C296        H301   1.084       .  S
C297        C298   1.411       .  A
C297        C994   1.492       .  S
C298        C299   1.410       .  A
C298        H302   1.084       .  S
C299        C300   1.403       .  A
C299        C304   1.481       .  S
C300        H303   1.084       .  S
C304        N305   1.363       .  A
C304        N309   1.359       .  A
N305        C306   1.362       .  A
C306        N307   1.357       .  A
N307        C308   1.355       .  A
C308        N309   1.361       .  A
C310        N311   1.359       .  A
C310        N315   1.358       .  A
N311        C312   1.359       .  A
C312        N313   1.361       .  A
N313        C314   1.359       .  A
C314        N315   1.359       .  A
C316        C317   1.406       .  A
C316        C321   1.406       .  A
C316        C982   1.487       .  S
C317        C318   1.402       .  A
C317        H322   1.084       .  S
C318        C319   1.398       .  A
C318        C967   1.479   1_556  S
C319        C320   1.400       .  A
C319        H323   1.084       .  S
C320        C321   1.404       .  A
C320        C419   1.469       .  S
C321        H324   1.083       .  S
O325        C328   1.268       .  A
O325       Cd330   2.490       .  S
C326        C979   1.484       .  S
C326        O335   1.264       .  A
C326        O331   1.267       .  A
O327        C333   1.268       .  A
O327       Cd330   2.486       .  S
C328       C1018   1.485       .  S
C328        O336   1.265       .  A
C329        C943   1.483       .  S
C329        O334   1.268       .  A
C329        O332   1.264       .  A
Cd330       O337   2.447       .  S
Cd330       O336   2.446       .  S
Cd330       O335   2.464       .  S
Cd330       O331   2.485       .  S
Cd330       O334   2.505       .  S
Cd330       O332   2.452       .  S
C333        C955   1.482       .  S
C333        O337   1.265       .  A
C338        C339   1.407       .  A
C338        C343   1.407       .  A
C338        C946   1.490       .  S
C339        C340   1.404       .  A
C339        H344   1.083       .  S
C340        C341   1.402       .  A
C340        C380   1.474       .  S
C341        C342   1.404       .  A
C341        H345   1.084       .  S
C342        C343   1.405       .  A
C342       C1054   1.485       .  S
C343        H346   1.083       .  S
C347        C348   1.404       .  A
C347        C352   1.402       .  A
C347        C919   1.484   1_556  S
C348        C349   1.406       .  A
C348        H353   1.084       .  S
C349        C350   1.406       .  A
C349        C931   1.484       .  S
C350        C351   1.404       .  A
C350        H354   1.084       .  S
C351        C352   1.400       .  A
C351        C415   1.472       .  S
C352        H355   1.084       .  S
O356        C359   1.267       .  A
O356       Cd361   2.482       .  S
C357       C1066   1.480   1_545  S
C357        O366   1.263   1_545  A
C357        O362   1.265       .  A
O358        C364   1.265       .  A
O358       Cd361   2.488       .  S
C359        C934   1.476       .  S
C359        O367   1.264       .  A
C360        C907   1.482       .  S
C360        O365   1.268       .  A
C360        O363   1.267       .  A
Cd361       O368   2.452       .  S
Cd361       O367   2.446       .  S
Cd361       O366   2.458   1_545  S
Cd361       O362   2.488       .  S
Cd361       O365   2.469   1_545  S
Cd361       O363   2.445   1_545  S
C364        C898   1.483       .  S
C364        O368   1.263       .  A
C369        C370   1.404   1_455  A
C369        C374   1.402       .  A
C369       C1114   1.483       .  S
C370        C371   1.408       .  A
C370        H375   1.084       .  S
C371        C372   1.406       .  A
C371        C895   1.485       .  S
C372        C373   1.402   1_655  A
C372        H376   1.084       .  S
C373        C374   1.400       .  A
C373        C378   1.470       .  S
C374        H377   1.084       .  S
C378        N379   1.358       .  A
C378        N383   1.357       .  A
N379        C380   1.358       .  A
C380        N381   1.361       .  A
N381        C382   1.360       .  A
C382        C408   1.475   1_545  S
C382        N383   1.358       .  A
C384        C385   1.404       .  A
C384        C389   1.403       .  A
C384        C874   1.485   1_556  S
C385        C386   1.406       .  A
C385        H390   1.084       .  S
C386        C387   1.403       .  A
C386        C883   1.478       .  S
C387        C388   1.401       .  A
C387        H391   1.084       .  S
C388        C389   1.402       .  A
C388        C417   1.471       .  S
C389        H392   1.085       .  S
O393        C396   1.270       .  A
O393       Cd398   2.502       .  S
C394        C847   1.484       .  S
C394        O403   1.263       .  A
C394        O399   1.268       .  A
O395        C401   1.268       .  A
O395       Cd398   2.485       .  S
C396        C859   1.489       .  S
C396        O404   1.264       .  A
C397        C886   1.475       .  S
C397        O402   1.267       .  A
C397        O400   1.263       .  A
Cd398       O405   2.456       .  S
Cd398       O404   2.445       .  S
Cd398       O403   2.452       .  S
Cd398       O399   2.505       .  S
Cd398       O402   2.482       .  S
Cd398       O400   2.436       .  S
C401       C1087   1.485       .  S
C401        O405   1.267       .  A
C406        C407   1.407       .  A
C406        C411   1.406       .  A
C406        C850   1.487       .  S
C407        C408   1.406       .  A
C407        H412   1.084       .  S
C408        C409   1.404       .  A
C409        C410   1.401   1_455  A
C409        H413   1.084   1_455  S
C410        C411   1.403   1_655  A
C410       C1006   1.483       .  S
C411        H414   1.084   1_455  S
C415        N416   1.360       .  A
C415        N420   1.356       .  A
N416        C417   1.359       .  A
C417        N418   1.358       .  A
N418        C419   1.356       .  A
C419        N420   1.358       .  A
C421        C422   1.401       .  A
C421        C426   1.403       .  A
C421        C835   1.479       .  S
C422        C423   1.400       .  A
C422        H427   1.084       .  S
C423        C424   1.402       .  A
C423        C454   1.468       .  S
C424        C425   1.404       .  A
C424        H428   1.083       .  S
C425        C426   1.403       .  A
C425        C823   1.484       .  S
C426        H429   1.084       .  S
O430        C433   1.268       .  A
O430       Cd435   2.487       .  S
C431        C811   1.476       .  S
C431        O440   1.265       .  A
C431        O436   1.267       .  A
O432        C438   1.266       .  A
O432       Cd435   2.480       .  S
C433        C802   1.477   1_545  S
C433        O441   1.263       .  A
C434       C1327   1.479       .  S
C434        O439   1.269       .  A
C434        O437   1.266       .  A
Cd435       O442   2.433       .  S
Cd435       O441   2.437       .  S
Cd435       O440   2.456       .  S
Cd435       O436   2.473       .  S
Cd435       O439   2.457       .  S
Cd435       O437   2.431       .  S
C438        C838   1.474       .  S
C438        O442   1.262       .  A
C443        C444   1.401       .  A
C443        C448   1.405       .  A
C443       C1447   1.485       .  S
C444        C445   1.400       .  A
C444        H449   1.084       .  S
C445        C446   1.403       .  A
C445        C522   1.473       .  S
C446        C447   1.407       .  A
C446        H450   1.084       .  S
C447        C448   1.410       .  A
C447        C799   1.488       .  S
C448        H451   1.083       .  S
C452        C460   1.471       .  S
C452        N453   1.357       .  A
C452        N457   1.361       .  A
N453        C454   1.356       .  A
C454        N455   1.355       .  A
N455        C456   1.356       .  A
C456        C491   1.471       .  S
C456        N457   1.359       .  A
C458        C459   1.403       .  A
C458        C463   1.405       .  A
C458        C787   1.482       .  S
C459        C460   1.403       .  A
C459        H464   1.084       .  S
C460        C461   1.401       .  A
C461        C462   1.403       .  A
C461        H465   1.084       .  S
C462        C463   1.404       .  A
C462        C778   1.483       .  S
C463        H466   1.084       .  S
O467        C470   1.264       .  A
O467       Cd472   2.472       .  S
C468        C766   1.478       .  S
C468        O477   1.266       .  A
C468        O473   1.265       .  A
O469        C475   1.268       .  A
O469       Cd472   2.476       .  S
C470        C754   1.480       .  S
C470        O478   1.265       .  A
C471       C1474   1.482       .  S
C471        O476   1.265       .  A
C471        O474   1.263       .  A
Cd472       O479   2.437       .  S
Cd472       O478   2.466       .  S
Cd472       O477   2.461       .  S
Cd472       O473   2.455       .  S
Cd472       O476   2.492       .  S
Cd472       O474   2.452       .  S
C475        C790   1.479       .  S
C475        O479   1.265       .  A
C480        C481   1.402       .  A
C480        C485   1.405       .  A
C480       C1375   1.488       .  S
C481        C482   1.402       .  A
C481        H486   1.084       .  S
C482        C483   1.406       .  A
C482        C751   1.478       .  S
C483        C484   1.405       .  A
C483        H487   1.084       .  S
C484        C485   1.405       .  A
C484        C520   1.476       .  S
C485        H488   1.084       .  S
C489        C490   1.408       .  A
C489        C494   1.406       .  A
C489        C739   1.485       .  S
C490        C491   1.403       .  A
C490        H495   1.084       .  S
C491        C492   1.402       .  A
C492        C493   1.400       .  A
C492        H496   1.085       .  S
C493        C494   1.404       .  A
C493        C727   1.482       .  S
C494        H497   1.084       .  S
O498        C501   1.267       .  A
O498       Cd503   2.481       .  S
C499        C718   1.486       .  S
C499        O508   1.266       .  A
C499        O504   1.266       .  A
O500        C506   1.269       .  A
O500       Cd503   2.493       .  S
C501        C706   1.480       .  S
C501        O509   1.265       .  A
C502       C1402   1.497       .  S
C502        O507   1.266       .  A
C502        O505   1.264       .  A
Cd503       O510   2.451       .  S
Cd503       O509   2.442       .  S
Cd503       O508   2.463       .  S
Cd503       O504   2.480       .  S
Cd503       O507   2.509       .  S
Cd503       O505   2.461       .  S
C506        C742   1.483       .  S
C506        O510   1.264       .  A
C511        C512   1.404       .  A
C511        C516   1.408       .  A
C511        C703   1.485       .  S
C512        C513   1.401       .  A
C512        H517   1.084       .  S
C513        C514   1.401       .  A
C513       C1303   1.482       .  S
C514        C515   1.403       .  A
C514        H518   1.084       .  S
C515        C516   1.408       .  A
C515        C524   1.477       .  S
C516        H519   1.084       .  S
C520        N521   1.359       .  A
C520        N525   1.360       .  A
N521        C522   1.358       .  A
C522        N523   1.359       .  A
N523        C524   1.357       .  A
C524        N525   1.362       .  A
C526        C527   1.399       .  A
C526        C531   1.404   1_556  A
C526        C958   1.479       .  S
C527        C528   1.397   1_556  A
C527        H532   1.085       .  S
C528        C529   1.400       .  A
C528        C623   1.464       .  S
C529        C530   1.405       .  A
C529        H533   1.084       .  S
C530        C531   1.409       .  A
C530        C691   1.485       .  S
C531        H534   1.084       .  S
O535        C538   1.267       .  A
O535       Cd540   2.482       .  S
C536        C922   1.485       .  S
C536        O545   1.265   1_655  A
C536        O541   1.269       .  A
O537        C543   1.269       .  A
O537       Cd540   2.472       .  S
C538        C682   1.477       .  S
C538        O546   1.263       .  A
C539        C694   1.478       .  S
C539        O544   1.269       .  A
C539        O542   1.262       .  A
Cd540       O547   2.454   1_455  S
Cd540       O546   2.439       .  S
Cd540       O545   2.444       .  S
Cd540       O541   2.473   1_455  S
Cd540       O544   2.495       .  S
Cd540       O542   2.428       .  S
C543        C730   1.485   1_455  S
C543        O547   1.265   1_455  A
C548        C549   1.405       .  A
C548        C553   1.404       .  A
C548        C679   1.482       .  S
C549        C550   1.403       .  A
C549        H554   1.084       .  S
C550        C551   1.402       .  A
C550        C763   1.482       .  S
C551        C552   1.401       .  A
C551        H555   1.084       .  S
C552        C553   1.402       .  A
C552        C629   1.470       .  S
C553        H556   1.084       .  S
C557        C558   1.405       .  A
C557        C562   1.408       .  A
C557        C667   1.484       .  S
C558        C559   1.402   1_554  A
C558        H563   1.084       .  S
C559        C560   1.401       .  A
C559        C910   1.485       .  S
C560        C561   1.401   1_556  A
C560        H564   1.084       .  S
C561        C562   1.406       .  A
C561        C621   1.474       .  S
C562        H565   1.084       .  S
O566        C569   1.268       .  A
O566       Cd571   2.484       .  S
C567        C775   1.482       .  S
C567        O576   1.264       .  A
C567        O572   1.266       .  A
O568        C574   1.266       .  A
O568       Cd571   2.485       .  S
C569        C670   1.478       .  S
C569        O577   1.264       .  A
C570        C658   1.473       .  S
C570        O575   1.268       .  A
C570        O573   1.265       .  A
Cd571       O578   2.443       .  S
Cd571       O577   2.448       .  S
Cd571       O576   2.457       .  S
Cd571       O572   2.479       .  S
Cd571       O575   2.465       .  S
Cd571       O573   2.432       .  S
C574        C871   1.482       .  S
C574        O578   1.263       .  A
C579        C580   1.404       .  A
C579        C584   1.405       .  A
C579        C655   1.484       .  S
C580        C581   1.401   1_665  A
C580        H585   1.084       .  S
C581        C582   1.401   1_455  A
C581        C627   1.470       .  S
C582        C583   1.404       .  A
C582        H586   1.084       .  S
C583        C584   1.405   1_545  A
C583        C814   1.489       .  S
C584        H587   1.083       .  S
C588        C589   1.405       .  A
C588        C593   1.405       .  A
C588        C643   1.482       .  S
C589        C590   1.403   1_545  A
C589        H594   1.084   1_545  S
C590        C591   1.404   1_565  A
C590        C715   1.484       .  S
C591        C592   1.402       .  A
C591        H595   1.084   1_545  S
C592        C593   1.402       .  A
C592        C625   1.471       .  S
C593        H596   1.084       .  S
O597        C600   1.265       .  A
O597       Cd602   2.461       .  S
C598        C631   1.472   1_545  S
C598        O607   1.264       .  A
C598        O603   1.265       .  A
O599        C605   1.268       .  A
O599       Cd602   2.468       .  S
C600        C826   1.480       .  S
C600        O608   1.265       .  A
C601        C970   1.477       .  S
C601        O606   1.266       .  A
C601        O604   1.262       .  A
Cd602       O609   2.433       .  S
Cd602       O608   2.445       .  S
Cd602       O607   2.443       .  S
Cd602       O603   2.464       .  S
Cd602       O606   2.476       .  S
Cd602       O604   2.446       .  S
C605        C646   1.473       .  S
C605        O609   1.265       .  A
C610        C611   1.405       .  A
C610        C615   1.404       .  A
C610        C862   1.485       .  S
C611        C612   1.404   1_556  A
C611        H616   1.084       .  S
C612        C613   1.399       .  A
C612        C619   1.469       .  S
C613        C614   1.401       .  A
C613        H617   1.084       .  S
C614        C615   1.404   1_554  A
C614        C634   1.474       .  S
C615        H618   1.084       .  S
C619        N620   1.358       .  A
C619        N624   1.355       .  A
N620        C621   1.360       .  A
C621        N622   1.357       .  A
N622        C623   1.359       .  A
C623        N624   1.356       .  A
C625        N626   1.358       .  A
C625        N630   1.357       .  A
N626        C627   1.358       .  A
C627        N628   1.358       .  A
N628        C629   1.357       .  A
C629        N630   1.358       .  A
C631        C632   1.403       .  A
C631        C636   1.412       .  A
C632        C633   1.398       .  A
C632        H641   1.084   1_565  S
C633        C634   1.412       .  A
C633        S637   1.805       .  S
C634        C635   1.402       .  A
C635        C636   1.398       .  A
C635        H642   1.084       .  S
C636        S638   1.804       .  S
S637        H640   1.406   1_554  S
S638        H639   1.407       .  S
C643        C644   1.403       .  A
C643        C648   1.416       .  A
C644        C645   1.397       .  A
C644        H653   1.084       .  S
C645        C646   1.413       .  A
C645        S649   1.805       .  S
C646        C647   1.402       .  A
C647        C648   1.400       .  A
C647        H654   1.084       .  S
C648        S650   1.804       .  S
S649        H652   1.407       .  S
S650        H651   1.406       .  S
C655        C656   1.405       .  A
C655        C660   1.415       .  A
C656        C657   1.397       .  A
C656        H665   1.084       .  S
C657        C658   1.413       .  A
C657        S661   1.804       .  S
C658        C659   1.402       .  A
C659        C660   1.400       .  A
C659        H666   1.084       .  S
C660        S662   1.803       .  S
S661        H664   1.407       .  S
S662        H663   1.406       .  S
C667        C668   1.405       .  A
C667        C672   1.415       .  A
C668        C669   1.403       .  A
C668        H677   1.084       .  S
C669        C670   1.413       .  A
C669        S673   1.803       .  S
C670        C671   1.403       .  A
C671        C672   1.398       .  A
C671        H678   1.084       .  S
C672        S674   1.805       .  S
S673        H676   1.407       .  S
S674        H675   1.406       .  S
C679        C680   1.403       .  A
C679        C684   1.414       .  A
C680        C681   1.401       .  A
C680        H689   1.083       .  S
C681        C682   1.413       .  A
C681        S685   1.808       .  S
C682        C683   1.403       .  A
C683        C684   1.400       .  A
C683        H690   1.084       .  S
C684        S686   1.804       .  S
S685        H688   1.407       .  S
S686        H687   1.406       .  S
C691        C692   1.402       .  A
C691        C696   1.417       .  A
C692        C693   1.397       .  A
C692        H701   1.084       .  S
C693        C694   1.415       .  A
C693        S697   1.802       .  S
C694        C695   1.402       .  A
C695        C696   1.401       .  A
C695        H702   1.084       .  S
C696        S698   1.804       .  S
S697        H700   1.404       .  S
S698        H699   1.407       .  S
C703        C704   1.404       .  A
C703        C708   1.415       .  A
C704        C705   1.397       .  A
C704        H713   1.084       .  S
C705        C706   1.414       .  A
C705        S709   1.804       .  S
C706        C707   1.405       .  A
C707        C708   1.404       .  A
C707        H714   1.084       .  S
C708        S710   1.803       .  S
S709        H712   1.407       .  S
S710        H711   1.406       .  S
C715        C716   1.404       .  A
C715        C720   1.412       .  A
C716        C717   1.402       .  A
C716        H725   1.084       .  S
C717        C718   1.417       .  A
C717        S721   1.802       .  S
C718        C719   1.406       .  A
C719        C720   1.399       .  A
C719        H726   1.084       .  S
C720        S722   1.804       .  S
S721        H724   1.407       .  S
S722        H723   1.407       .  S
C727        C728   1.403       .  A
C727        C732   1.413       .  A
C728        C729   1.400       .  A
C728        H737   1.084       .  S
C729        C730   1.418       .  A
C729        S733   1.802       .  S
C730        C731   1.405       .  A
C731        C732   1.399       .  A
C731        H738   1.084   1_655  S
C732        S734   1.804       .  S
S733        H736   1.405       .  S
S734        H735   1.407       .  S
C739        C740   1.403       .  A
C739        C744   1.414       .  A
C740        C741   1.399   1_655  A
C740        H749   1.084       .  S
C741        C742   1.416       .  A
C741        S745   1.803       .  S
C742        C743   1.405   1_455  A
C743        C744   1.402       .  A
C743        H750   1.084       .  S
C744        S746   1.804       .  S
S745        H748   1.407       .  S
S746        H747   1.407       .  S
C751        C752   1.403       .  A
C751        C756   1.412       .  A
C752        C753   1.399       .  A
C752        H761   1.084       .  S
C753        C754   1.413       .  A
C753        S757   1.803       .  S
C754        C755   1.406       .  A
C755        C756   1.401       .  A
C755        H762   1.084       .  S
C756        S758   1.804       .  S
S757        H760   1.407       .  S
S758        H759   1.406       .  S
C763        C764   1.404       .  A
C763        C768   1.413       .  A
C764        C765   1.399       .  A
C764        H773   1.084       .  S
C765        C766   1.414       .  A
C765        S769   1.803       .  S
C766        C767   1.404       .  A
C767        C768   1.399       .  A
C767        H774   1.084       .  S
C768        S770   1.805       .  S
S769        H772   1.407       .  S
S770        H771   1.407       .  S
C775        C776   1.406       .  A
C775        C780   1.415       .  A
C776        C777   1.399       .  A
C776        H785   1.084       .  S
C777        C778   1.414       .  A
C777        S781   1.805       .  S
C778        C779   1.404       .  A
C779        C780   1.400       .  A
C779        H786   1.084       .  S
C780        S782   1.802       .  S
S781        H784   1.406       .  S
S782        H783   1.407       .  S
C787        C788   1.404       .  A
C787        C792   1.413       .  A
C788        C789   1.400       .  A
C788        H797   1.083       .  S
C789        C790   1.413       .  A
C789        S793   1.802       .  S
C790        C791   1.405       .  A
C791        C792   1.399       .  A
C791        H798   1.084       .  S
C792        S794   1.805       .  S
S793        H796   1.407       .  S
S794        H795   1.406       .  S
C799        C800   1.407       .  A
C799        C804   1.415       .  A
C800        C801   1.401       .  A
C800        H809   1.084       .  S
C801        C802   1.412       .  A
C801        S805   1.803       .  S
C802        C803   1.403   1_565  A
C803        C804   1.399   1_545  A
C803        H810   1.084       .  S
C804        S806   1.804       .  S
S805        H808   1.407   1_565  S
S806        H807   1.406       .  S
C811        C812   1.403       .  A
C811        C816   1.412       .  A
C812        C813   1.401       .  A
C812        H821   1.084       .  S
C813        C814   1.417       .  A
C813        S817   1.804       .  S
C814        C815   1.407       .  A
C815        C816   1.398       .  A
C815        H822   1.084       .  S
C816        S818   1.804       .  S
S817        H820   1.407       .  S
S818        H819   1.407       .  S
C823        C824   1.405       .  A
C823        C828   1.414       .  A
C824        C825   1.398       .  A
C824        H833   1.084       .  S
C825        C826   1.414       .  A
C825        S829   1.800       .  S
C826        C827   1.406       .  A
C827        C828   1.398       .  A
C827        H834   1.084       .  S
C828        S830   1.804       .  S
S829        H832   1.408       .  S
S830        H831   1.406       .  S
C835        C836   1.403       .  A
C835        C840   1.414       .  A
C836        C837   1.396       .  A
C836        H845   1.084       .  S
C837        C838   1.413       .  A
C837        S841   1.804       .  S
C838        C839   1.403       .  A
C839        C840   1.399       .  A
C839        H846   1.084       .  S
C840        S842   1.804       .  S
S841        H844   1.407       .  S
S842        H843   1.406       .  S
C847        C848   1.404       .  A
C847        C852   1.415       .  A
C848        C849   1.399       .  A
C848        H857   1.084       .  S
C849        C850   1.415       .  A
C849        S853   1.805       .  S
C850        C851   1.405       .  A
C851        C852   1.404       .  A
C851        H858   1.084       .  S
C852        S854   1.802       .  S
S853        H856   1.406       .  S
S854        H855   1.407       .  S
C859        C860   1.406       .  A
C859        C864   1.419       .  A
C860        C861   1.403       .  A
C860        H869   1.083       .  S
C861        C862   1.415       .  A
C861        S865   1.804       .  S
C862        C863   1.401       .  A
C863        C864   1.400       .  A
C863        H870   1.084       .  S
C864        S866   1.803       .  S
S865        H868   1.407       .  S
S866        H867   1.408       .  S
C871        C872   1.405       .  A
C871        C876   1.415       .  A
C872        C873   1.405       .  A
C872        H881   1.083       .  S
C873        C874   1.413       .  A
C873        S877   1.807       .  S
C874        C875   1.402       .  A
C875        C876   1.401       .  A
C875        H882   1.083   1_554  S
C876        S878   1.809       .  S
S877        H880   1.406       .  S
S878        H879   1.407       .  S
C883        C884   1.404       .  A
C883        C888   1.411       .  A
C884        C885   1.401       .  A
C884        H893   1.083       .  S
C885        C886   1.413   1_655  A
C885        S889   1.803       .  S
C886        C887   1.404       .  A
C887        C888   1.397   1_455  A
C887        H894   1.084       .  S
C888        S890   1.803       .  S
S889        H892   1.407       .  S
S890        H891   1.406       .  S
C895        C896   1.405       .  A
C895        C900   1.414       .  A
C896        C897   1.401       .  A
C896        H905   1.084       .  S
C897        C898   1.416       .  A
C897        S901   1.802   1_545  S
C898        C899   1.405       .  A
C899        C900   1.398       .  A
C899        H906   1.084       .  S
C900        S902   1.804       .  S
S901        H904   1.407       .  S
S902        H903   1.407       .  S
C907        C908   1.405       .  A
C907        C912   1.414       .  A
C908        C909   1.397       .  A
C908        H917   1.084       .  S
C909        C910   1.414       .  A
C909        S913   1.805       .  S
C910        C911   1.405       .  A
C911        C912   1.404       .  A
C911        H918   1.083       .  S
C912        S914   1.808       .  S
S913        H916   1.407   1_556  S
S914        H915   1.407       .  S
C919        C920   1.402       .  A
C919        C924   1.414       .  A
C920        C921   1.401       .  A
C920        H929   1.083   1_554  S
C921        C922   1.418       .  A
C921        S925   1.808   1_655  S
C922        C923   1.405       .  A
C923        C924   1.400       .  A
C923        H930   1.084       .  S
C924        S926   1.804       .  S
S925        H928   1.407   1_455  S
S926        H927   1.406       .  S
C931        C932   1.404       .  A
C931        C936   1.416       .  A
C932        C933   1.399       .  A
C932        H941   1.084       .  S
C933        C934   1.413       .  A
C933        S937   1.805       .  S
C934        C935   1.402       .  A
C935        C936   1.401       .  A
C935        H942   1.084       .  S
C936        S938   1.804       .  S
S937        H940   1.407       .  S
S938        H939   1.406       .  S
C943        C944   1.404       .  A
C943        C948   1.416       .  A
C944        C945   1.404       .  A
C944        H953   1.084       .  S
C945        C946   1.417       .  A
C945        S949   1.804       .  S
C946        C947   1.404       .  A
C947        C948   1.400       .  A
C947        H954   1.084       .  S
C948        S950   1.804       .  S
S949        H952   1.407       .  S
S950        H951   1.407       .  S
C955        C956   1.405       .  A
C955        C960   1.416       .  A
C956        C957   1.402       .  A
C956        H965   1.084       .  S
C957        C958   1.413       .  A
C957        S961   1.804       .  S
C958        C959   1.400       .  A
C959        C960   1.396       .  A
C959        H966   1.084       .  S
C960        S962   1.801       .  S
S961        H964   1.406       .  S
S962        H963   1.404       .  S
C967        C968   1.402       .  A
C967        C972   1.414       .  A
C968        C969   1.398       .  A
C968        H977   1.084   1_554  S
C969        C970   1.416       .  A
C969        S973   1.804       .  S
C970        C971   1.403       .  A
C971        C972   1.398       .  A
C971        H978   1.084       .  S
C972        S974   1.805       .  S
S973        H976   1.407       .  S
S974        H975   1.407       .  S
C979        C980   1.404       .  A
C979        C984   1.415       .  A
C980        C981   1.401       .  A
C980        H989   1.083       .  S
C981        C982   1.415       .  A
C981        S985   1.803       .  S
C982        C983   1.404       .  A
C983        C984   1.402       .  A
C983        H990   1.083       .  S
C984        S986   1.806       .  S
S985        H988   1.406       .  S
S986        H987   1.407       .  S
C991        C992   1.406       .  A
C991        C996   1.416       .  A
C992        C993   1.406       .  A
C992       H1001   1.083       .  S
C993        C994   1.417       .  A
C993        S997   1.803       .  S
C994        C995   1.405       .  A
C995        C996   1.402       .  A
C995       H1002   1.084       .  S
C996        S998   1.804       .  S
S997       H1000   1.406       .  S
S998        H999   1.407       .  S
C1003      C1004   1.408       .  A
C1003      C1008   1.416       .  A
C1004      C1005   1.401       .  A
C1004      H1013   1.084       .  S
C1005      C1006   1.412       .  A
C1005      S1009   1.805       .  S
C1006      C1007   1.403       .  A
C1007      C1008   1.404       .  A
C1007      H1014   1.082       .  S
C1008      S1010   1.809       .  S
S1009      H1012   1.406       .  S
S1010      H1011   1.406       .  S
C1015      C1016   1.405       .  A
C1015      C1020   1.412       .  A
C1016      C1017   1.403       .  A
C1016      H1025   1.084       .  S
C1017      C1018   1.416       .  A
C1017      S1021   1.802       .  S
C1018      C1019   1.406       .  A
C1019      C1020   1.399       .  A
C1019      H1026   1.084       .  S
C1020      S1022   1.805       .  S
S1021      H1024   1.407       .  S
S1022      H1023   1.407       .  S
C1027      C1028   1.403       .  A
C1027      C1032   1.414       .  A
C1028      C1029   1.402       .  A
C1028      H1037   1.084       .  S
C1029      C1030   1.417       .  A
C1029      S1033   1.802       .  S
C1030      C1031   1.405       .  A
C1031      C1032   1.401       .  A
C1031      H1038   1.084       .  S
C1032      S1034   1.805       .  S
S1033      H1036   1.407       .  S
S1034      H1035   1.407       .  S
C1039      C1040   1.405       .  A
C1039      C1044   1.411       .  A
C1040      C1041   1.402       .  A
C1040      H1049   1.084       .  S
C1041      C1042   1.414       .  A
C1041      S1045   1.803       .  S
C1042      C1043   1.404       .  A
C1043      C1044   1.398       .  A
C1043      H1050   1.084       .  S
C1044      S1046   1.804       .  S
S1045      H1048   1.406       .  S
S1046      H1047   1.406       .  S
C1051      C1052   1.405       .  A
C1051      C1056   1.417       .  A
C1052      C1053   1.402       .  A
C1052      H1061   1.084       .  S
C1053      C1054   1.416       .  A
C1053      S1057   1.804       .  S
C1054      C1055   1.403       .  A
C1055      C1056   1.399       .  A
C1055      H1062   1.084       .  S
C1056      S1058   1.803       .  S
S1057      H1060   1.406       .  S
S1058      H1059   1.408       .  S
C1063      C1064   1.406       .  A
C1063      C1068   1.417       .  A
C1064      C1065   1.402       .  A
C1064      H1073   1.082       .  S
C1065      C1066   1.412       .  A
C1065      S1069   1.809       .  S
C1066      C1067   1.404   1_565  A
C1067      C1068   1.402   1_545  A
C1067      H1074   1.084       .  S
C1068      S1070   1.804   1_565  S
S1069      H1072   1.407       .  S
S1070      H1071   1.407   1_545  S
C1075      C1076   1.405       .  A
C1075      C1080   1.414   1_565  A
C1076      C1077   1.404       .  A
C1076      H1085   1.083       .  S
C1077      C1078   1.416       .  A
C1077      S1081   1.804       .  S
C1078      C1079   1.405       .  A
C1079      C1080   1.399   1_565  A
C1079      H1086   1.084       .  S
C1080      S1082   1.804       .  S
S1081      H1084   1.406       .  S
S1082      H1083   1.407       .  S
C1087      C1088   1.406       .  A
C1087      C1092   1.415       .  A
C1088      C1089   1.403       .  A
C1088      H1097   1.084       .  S
C1089      C1090   1.413       .  A
C1089      S1093   1.804       .  S
C1090      C1091   1.402       .  A
C1091      C1092   1.403       .  A
C1091      H1098   1.083       .  S
C1092      S1094   1.808       .  S
S1093      H1096   1.406       .  S
S1094      H1095   1.407       .  S
C1099      C1100   1.404       .  A
C1099      C1104   1.416       .  A
C1100      C1101   1.400       .  A
C1100      H1109   1.084       .  S
C1101      C1102   1.416       .  A
C1101      S1105   1.804       .  S
C1102      C1103   1.406       .  A
C1103      C1104   1.405       .  A
C1103      H1110   1.084       .  S
C1104      S1106   1.802       .  S
S1105      H1108   1.407       .  S
S1106      H1107   1.407       .  S
C1111      C1112   1.405       .  A
C1111      C1116   1.415       .  A
C1112      C1113   1.398       .  A
C1112      H1121   1.084       .  S
C1113      C1114   1.413       .  A
C1113      S1117   1.805       .  S
C1114      C1115   1.405   1_455  A
C1115      C1116   1.403   1_655  A
C1115      H1122   1.084       .  S
C1116      S1118   1.802   1_455  S
S1117      H1120   1.407       .  S
S1118      H1119   1.407       .  S
C1123      C1124   1.404       .  A
C1123      C1128   1.415       .  A
C1124      C1125   1.404       .  A
C1124      H1133   1.084       .  S
C1125      C1126   1.416       .  A
C1125      S1129   1.802       .  S
C1126      C1127   1.403   1_655  A
C1127      C1128   1.398   1_455  A
C1127      H1134   1.084       .  S
C1128      S1130   1.806   1_655  S
S1129      H1132   1.407       .  S
S1130      H1131   1.407   1_455  S
C1135      C1136   1.404   1_545  A
C1135      C1140   1.414       .  A
C1136      C1137   1.400   1_565  A
C1136      H1145   1.084       .  S
C1137      C1138   1.414       .  A
C1137      S1141   1.802   1_545  S
C1138      C1139   1.406       .  A
C1139      C1140   1.401       .  A
C1139      H1146   1.084       .  S
C1140      S1142   1.805       .  S
S1141      H1144   1.408       .  S
S1142      H1143   1.406       .  S
C1147      C1148   1.406       .  A
C1147      C1152   1.415       .  A
C1148      C1149   1.402       .  A
C1148      H1157   1.084       .  S
C1149      C1150   1.416       .  A
C1149      S1153   1.805       .  S
C1150      C1151   1.405       .  A
C1151      C1152   1.402       .  A
C1151      H1158   1.084       .  S
C1152      S1154   1.802       .  S
S1153      H1156   1.407       .  S
S1154      H1155   1.407       .  S
C1159      C1160   1.402       .  A
C1159      C1164   1.414       .  A
C1160      C1161   1.394       .  A
C1160      H1169   1.084       .  S
C1161      C1162   1.412       .  A
C1161      S1165   1.805       .  S
C1162      C1163   1.404       .  A
C1163      C1164   1.400       .  A
C1163      H1170   1.084       .  S
C1164      S1166   1.803   1_655  S
S1165      H1168   1.407       .  S
S1166      H1167   1.407       .  S
C1171      C1172   1.405       .  A
C1171      C1176   1.414       .  A
C1172      C1173   1.400       .  A
C1172      H1181   1.083       .  S
C1173      C1174   1.411       .  A
C1173      S1177   1.809       .  S
C1174      C1175   1.404       .  A
C1175      C1176   1.400       .  A
C1175      H1182   1.084       .  S
C1176      S1178   1.804       .  S
S1177      H1180   1.407       .  S
S1178      H1179   1.407       .  S
C1183      C1184   1.403       .  A
C1183      C1188   1.414       .  A
C1184      C1185   1.401       .  A
C1184      H1193   1.084       .  S
C1185      C1186   1.416       .  A
C1185      S1189   1.804       .  S
C1186      C1187   1.405       .  A
C1187      C1188   1.403       .  A
C1187      H1194   1.084       .  S
C1188      S1190   1.804       .  S
S1189      H1192   1.407       .  S
S1190      H1191   1.406       .  S
C1195      C1196   1.406       .  A
C1195      C1200   1.415       .  A
C1196      C1197   1.405       .  A
C1196      H1205   1.084       .  S
C1197      C1198   1.417       .  A
C1197      S1201   1.802       .  S
C1198      C1199   1.404       .  A
C1199      C1200   1.399       .  A
C1199      H1206   1.084       .  S
C1200      S1202   1.804       .  S
S1201      H1204   1.407       .  S
S1202      H1203   1.406       .  S
C1207      C1208   1.404       .  A
C1207      C1212   1.411       .  A
C1208      C1209   1.405       .  A
C1208      H1217   1.084       .  S
C1209      C1210   1.420       .  A
C1209      S1213   1.800       .  S
C1210      C1211   1.409       .  A
C1211      C1212   1.399       .  A
C1211      H1218   1.083       .  S
C1212      S1214   1.805       .  S
S1213      H1216   1.408       .  S
S1214      H1215   1.407       .  S
C1219      C1220   1.401       .  A
C1219      C1224   1.415       .  A
C1220      C1221   1.399       .  A
C1220      H1229   1.084       .  S
C1221      C1222   1.414       .  A
C1221      S1225   1.799       .  S
C1222      C1223   1.405       .  A
C1223      C1224   1.404       .  A
C1223      H1230   1.084       .  S
C1224      S1226   1.804       .  S
S1225      H1228   1.407       .  S
S1226      H1227   1.406       .  S
C1231      C1232   1.407       .  A
C1231      C1236   1.416       .  A
C1232      C1233   1.407       .  A
C1232      H1241   1.082   1_565  S
C1233      C1234   1.416       .  A
C1233      S1237   1.809       .  S
C1234      C1235   1.404       .  A
C1235      C1236   1.402       .  A
C1235      H1242   1.084       .  S
C1236      S1238   1.804       .  S
S1237      H1240   1.407       .  S
S1238      H1239   1.407       .  S
C1243      C1244   1.408       .  A
C1243      C1248   1.419       .  A
C1244      C1245   1.405       .  A
C1244      H1253   1.083       .  S
C1245      C1246   1.414       .  A
C1245      S1249   1.804       .  S
C1246      C1247   1.403       .  A
C1247      C1248   1.404       .  A
C1247      H1254   1.083   1_545  S
C1248      S1250   1.806   1_545  S
S1249      H1252   1.406       .  S
S1250      H1251   1.407       .  S
C1255      C1256   1.409       .  A
C1255      C1260   1.420       .  A
C1256      C1257   1.402       .  A
C1256      H1265   1.083       .  S
C1257      C1258   1.415       .  A
C1257      S1261   1.805       .  S
C1258      C1259   1.406       .  A
C1259      C1260   1.406       .  A
C1259      H1266   1.084       .  S
C1260      S1262   1.799       .  S
S1261      H1264   1.407       .  S
S1262      H1263   1.408       .  S
C1267      C1268   1.403       .  A
C1267      C1272   1.418       .  A
C1268      C1269   1.396       .  A
C1268      H1277   1.084       .  S
C1269      C1270   1.413   1_565  A
C1269      S1273   1.799       .  S
C1270      C1271   1.404   1_545  A
C1271      C1272   1.405       .  A
C1271      H1278   1.084   1_565  S
C1272      S1274   1.803       .  S
S1273      H1276   1.406       .  S
S1274      H1275   1.406       .  S
C1279      C1280   1.406       .  A
C1279      C1284   1.419       .  A
C1280      C1281   1.402       .  A
C1280      H1289   1.084       .  S
C1281      C1282   1.415       .  A
C1281      S1285   1.802       .  S
C1282      C1283   1.402       .  A
C1283      C1284   1.401       .  A
C1283      H1290   1.084       .  S
C1284      S1286   1.805       .  S
S1285      H1288   1.407       .  S
S1286      H1287   1.407       .  S
C1291      C1292   1.404   1_455  A
C1291      C1296   1.413       .  A
C1292      C1293   1.404       .  A
C1292      H1301   1.084       .  S
C1293      C1294   1.418       .  A
C1293      S1297   1.804       .  S
C1294      C1295   1.404       .  A
C1295      C1296   1.401   1_655  A
C1295      H1302   1.083       .  S
C1296      S1298   1.805       .  S
S1297      H1300   1.407       .  S
S1298      H1299   1.407       .  S
C1303      C1304   1.404       .  A
C1303      C1308   1.414       .  A
C1304      C1305   1.399       .  A
C1304      H1313   1.084       .  S
C1305      C1306   1.414       .  A
C1305      S1309   1.804       .  S
C1306      C1307   1.404       .  A
C1307      C1308   1.401       .  A
C1307      H1314   1.084       .  S
C1308      S1310   1.804       .  S
S1309      H1312   1.407       .  S
S1310      H1311   1.406       .  S
C1315      C1316   1.406       .  A
C1315      C1320   1.415       .  A
C1316      C1317   1.403       .  A
C1316      H1325   1.083       .  S
C1317      C1318   1.414       .  A
C1317      S1321   1.804       .  S
C1318      C1319   1.402       .  A
C1319      C1320   1.401       .  A
C1319      H1326   1.082       .  S
C1320      S1322   1.807       .  S
S1321      H1324   1.407       .  S
S1322      H1323   1.406       .  S
C1327      C1328   1.405       .  A
C1327      C1332   1.416       .  A
C1328      C1329   1.400       .  A
C1328      H1337   1.083       .  S
C1329      C1330   1.413       .  A
C1329      S1333   1.805   1_655  S
C1330      C1331   1.401       .  A
C1331      C1332   1.396       .  A
C1331      H1338   1.084       .  S
C1332      S1334   1.803       .  S
S1333      H1336   1.406       .  S
S1334      H1335   1.408       .  S
C1339      C1340   1.405       .  A
C1339      C1344   1.415       .  A
C1340      C1341   1.398       .  A
C1340      H1349   1.084   1_455  S
C1341      C1342   1.415       .  A
C1341      S1345   1.804   1_455  S
C1342      C1343   1.406       .  A
C1343      C1344   1.403       .  A
C1343      H1350   1.084       .  S
C1344      S1346   1.803       .  S
S1345      H1348   1.407   1_655  S
S1346      H1347   1.406       .  S
C1351      C1352   1.403       .  A
C1351      C1356   1.414       .  A
C1352      C1353   1.402       .  A
C1352      H1361   1.084       .  S
C1353      C1354   1.418       .  A
C1353      S1357   1.803   1_655  S
C1354      C1355   1.405       .  A
C1355      C1356   1.401       .  A
C1355      H1362   1.084       .  S
C1356      S1358   1.804       .  S
S1357      H1360   1.408       .  S
S1358      H1359   1.406       .  S
C1363      C1364   1.403       .  A
C1363      C1368   1.415       .  A
C1364      C1365   1.402       .  A
C1364      H1373   1.084       .  S
C1365      C1366   1.419       .  A
C1365      S1369   1.804       .  S
C1366      C1367   1.406       .  A
C1367      C1368   1.402       .  A
C1367      H1374   1.084       .  S
C1368      S1370   1.802       .  S
S1369      H1372   1.407       .  S
S1370      H1371   1.406       .  S
C1375      C1376   1.405       .  A
C1375      C1380   1.417       .  A
C1376      C1377   1.400       .  A
C1376      H1385   1.084       .  S
C1377      C1378   1.414       .  A
C1377      S1381   1.803       .  S
C1378      C1379   1.404       .  A
C1379      C1380   1.402       .  A
C1379      H1386   1.084       .  S
C1380      S1382   1.804       .  S
S1381      H1384   1.407       .  S
S1382      H1383   1.406       .  S
C1387      C1388   1.406       .  A
C1387      C1392   1.415       .  A
C1388      C1389   1.402       .  A
C1388      H1397   1.084       .  S
C1389      C1390   1.413       .  A
C1389      S1393   1.803       .  S
C1390      C1391   1.403       .  A
C1391      C1392   1.402       .  A
C1391      H1398   1.083       .  S
C1392      S1394   1.808       .  S
S1393      H1396   1.406       .  S
S1394      H1395   1.407       .  S
C1399      C1400   1.405   1_455  A
C1399      C1404   1.412       .  A
C1400      C1401   1.404       .  A
C1400      H1409   1.084       .  S
C1401      C1402   1.419   1_655  A
C1401      S1405   1.799       .  S
C1402      C1403   1.409       .  A
C1403      C1404   1.404       .  A
C1403      H1410   1.082       .  S
C1404      S1406   1.810       .  S
S1405      H1408   1.408       .  S
S1406      H1407   1.406       .  S
C1411      C1412   1.404       .  A
C1411      C1416   1.415       .  A
C1412      C1413   1.400       .  A
C1412      H1421   1.084       .  S
C1413      C1414   1.415       .  A
C1413      S1417   1.804       .  S
C1414      C1415   1.405       .  A
C1415      C1416   1.404       .  A
C1415      H1422   1.084       .  S
C1416      S1418   1.804       .  S
S1417      H1420   1.407       .  S
S1418      H1419   1.407       .  S
C1423      C1424   1.402       .  A
C1423      C1428   1.415       .  A
C1424      C1425   1.395       .  A
C1424      H1433   1.084       .  S
C1425      C1426   1.414       .  A
C1425      S1429   1.800       .  S
C1426      C1427   1.405       .  A
C1427      C1428   1.405       .  A
C1427      H1434   1.084       .  S
C1428      S1430   1.803       .  S
S1429      H1432   1.405       .  S
S1430      H1431   1.406       .  S
C1435      C1436   1.405       .  A
C1435      C1440   1.416       .  A
C1436      C1437   1.402       .  A
C1436      H1445   1.084       .  S
C1437      C1438   1.415       .  A
C1437      S1441   1.804       .  S
C1438      C1439   1.403       .  A
C1439      C1440   1.399       .  A
C1439      H1446   1.084       .  S
C1440      S1442   1.804       .  S
S1441      H1444   1.406       .  S
S1442      H1443   1.407       .  S
C1447      C1448   1.404       .  A
C1447      C1452   1.415       .  A
C1448      C1449   1.403   1_565  A
C1448      H1457   1.084       .  S
C1449      C1450   1.416   1_545  A
C1449      S1453   1.802       .  S
C1450      C1451   1.403       .  A
C1451      C1452   1.398       .  A
C1451      H1458   1.084       .  S
C1452      S1454   1.805       .  S
S1453      H1456   1.407       .  S
S1454      H1455   1.407       .  S
C1459      C1460   1.407       .  A
C1459      C1464   1.419       .  A
C1460      C1461   1.396       .  A
C1460      H1469   1.083       .  S
C1461      C1462   1.411       .  A
C1461      S1465   1.805       .  S
C1462      C1463   1.402       .  A
C1463      C1464   1.400       .  A
C1463      H1470   1.084       .  S
C1464      S1466   1.800       .  S
S1465      H1468   1.406       .  S
S1466      H1467   1.408       .  S
C1471      C1472   1.406       .  A
C1471      C1476   1.414       .  A
C1472      C1473   1.400       .  A
C1472      H1481   1.084       .  S
C1473      C1474   1.414       .  A
C1473      S1477   1.802       .  S
C1474      C1475   1.406       .  A
C1475      C1476   1.399       .  A
C1475      H1482   1.084       .  S
C1476      S1478   1.805       .  S
S1477      H1480   1.407       .  S
S1478      H1479   1.406       .  S
C1483      C1484   1.402       .  A
C1483      C1488   1.411       .  A
C1484      C1485   1.400       .  A
C1484      H1493   1.084       .  S
C1485      C1486   1.419       .  A
C1485      S1489   1.800       .  S
C1486      C1487   1.405       .  A
C1487      C1488   1.395       .  A
C1487      H1494   1.084       .  S
C1488      S1490   1.805       .  S
S1489      H1492   1.408       .  S
S1490      H1491   1.407       .  S
