geometry optimzed in LAMMPS
_audit_creation_date              2020-11-30 
_audit_creation_method            'lammps2cif' 
_symmetry_space_group_name_H-M    'P1' 
_symmetry_Int_Tables_number       1 
_symmetry_cell_setting            triclinic 
loop_ 
_symmetry_equiv_pos_as_xyz 
  x,y,z 
_cell_length_a                    46.04878211833011 
_cell_length_b                    46.07007990071157 
_cell_length_c                    46.213360793804625 
_cell_angle_alpha                 89.80930132840663 
_cell_angle_beta                  89.97367817484076 
_cell_angle_gamma                 89.97036516519289 
loop_ 
_atom_site_label 
_atom_site_type_symbol 
_atom_site_fract_x 
_atom_site_fract_y 
_atom_site_fract_z 
_atom_site_charge 
N1          N  0.66306408  0.72387795  0.74564842    -0.27190
N2          N  0.66003694  0.74133391  0.72306404    -0.35050
C3          C  0.63548555  0.75686162  0.72624179     0.01150
C4          C  0.62291061  0.74909429  0.75227759     0.07180
C5          C  0.64089201  0.72823978  0.76407175    -0.05920
H6          H  0.62749149  0.77268770  0.71083442     0.07840
H7          H  0.63760407  0.71639241  0.78406123     0.09040
Cu8        Cu  0.68981044  0.74357418  0.68937915     0.44170
Cu9        Cu  0.69554421  0.69300374  0.74923140     0.41990
Cu10       Cu  0.74896918  0.69149578  0.69201377     0.43880
N11         N  0.72361727  0.74255318  0.65965511    -0.34580
N12         N  0.74521623  0.72362053  0.66067839    -0.28830
C13         C  0.76317127  0.72846799  0.63820121    -0.04930
C14         C  0.75239249  0.75160445  0.62249080     0.07290
C15         C  0.72729677  0.75998092  0.63652079     0.01080
H16         H  0.78236746  0.71580267  0.63342776     0.08730
H17         H  0.71257005  0.77716262  0.63016997     0.07810
N18         N  0.74710454  0.66098152  0.72506554    -0.36020
N19         N  0.72744585  0.66150259  0.74593496    -0.28200
C20         C  0.73124763  0.63824595  0.76319541    -0.03440
C21         C  0.75449752  0.62256061  0.75273673     0.05170
C22         C  0.76406566  0.63744629  0.72858124     0.03260
H23         H  0.71785312  0.63298487  0.78172376     0.08370
H24         H  0.78166603  0.63136227  0.71431335     0.07200
N25         N  0.66095933  0.28457055  0.74266875    -0.27190
N26         N  0.66299673  0.26238325  0.72468716    -0.35050
C27         C  0.64035803  0.24446393  0.72907616     0.01150
C28         C  0.62320644  0.25620560  0.75055579     0.07180
C29         C  0.63672540  0.28162484  0.75865894    -0.05920
H30         H  0.63631064  0.22479052  0.71701238     0.07840
H31         H  0.62960151  0.29676977  0.77504161     0.09040
Cu32       Cu  0.69522269  0.25860732  0.69361713     0.44170
Cu33       Cu  0.69132586  0.31762086  0.74491343     0.41990
Cu34       Cu  0.74909322  0.31597153  0.69184410     0.43880
N35         N  0.72722671  0.26196417  0.66224629    -0.34580
N36         N  0.74647368  0.28325627  0.66119232    -0.28830
C37         C  0.76306545  0.27998726  0.63744897    -0.04930
C38         C  0.75391445  0.25537188  0.62316617     0.07290
C39         C  0.73122460  0.24443805  0.63936619     0.01080
H40         H  0.78041185  0.29448694  0.63105160     0.08730
H41         H  0.71819143  0.22551858  0.63458696     0.07810
N42         N  0.74628478  0.34667894  0.72448740    -0.36020
N43         N  0.72486375  0.34752625  0.74355009    -0.28200
C44         C  0.72855253  0.37062325  0.76088209    -0.03440
C45         C  0.75360408  0.38472235  0.75245730     0.05170
C46         C  0.76432131  0.36911250  0.72934021     0.03260
H47         H  0.71391222  0.37684004  0.77810268     0.08370
H48         H  0.78336042  0.37409275  0.71652812     0.07200
N49         N  0.34763340  0.28539494  0.74525308    -0.27190
N50         N  0.34680967  0.26408437  0.72616250    -0.35050
C51         C  0.36949580  0.24625499  0.73070864     0.01150
C52         C  0.38538270  0.25706794  0.75355705     0.07180
C53         C  0.37111013  0.28191374  0.76222987    -0.05920
H54         H  0.37452670  0.22738174  0.71776469     0.07840
H55         H  0.37739085  0.29647587  0.77944633     0.09040
Cu56       Cu  0.31627567  0.26146476  0.69343395     0.44170
Cu57       Cu  0.31687611  0.31823897  0.74719072     0.41990
Cu58       Cu  0.25785672  0.31412407  0.69541681     0.43880
N59         N  0.28454806  0.26472397  0.66188047    -0.34580
N60         N  0.26263546  0.28326758  0.66305201    -0.28830
C61         C  0.24566677  0.27944707  0.63967587    -0.04930
C62         C  0.25780494  0.25782905  0.62293046     0.07290
C63         C  0.28239692  0.24896285  0.63752514     0.01080
H64         H  0.22623720  0.29181274  0.63499252     0.08730
H65         H  0.29741692  0.23208876  0.63113855     0.07810
N66         N  0.26054916  0.34543663  0.72758467    -0.36020
N67         N  0.28262788  0.34748666  0.74577775    -0.28200
C68         C  0.27896605  0.37113435  0.76239127    -0.03440
C69         C  0.25318674  0.38427369  0.75454193     0.05170
C70         C  0.24204989  0.36753498  0.73242913     0.03260
H71         H  0.29405618  0.37832067  0.77881107     0.08370
H72         H  0.22249917  0.37165935  0.72010275     0.07200
N73         N  0.34754816  0.72367449  0.74484105    -0.27190
N74         N  0.34558054  0.74524398  0.72597751    -0.35050
C75         C  0.36777129  0.76371950  0.73013639     0.01150
C76         C  0.38451521  0.75317206  0.75255915     0.07180
C77         C  0.37130484  0.72769267  0.76130480    -0.05920
H78         H  0.37198221  0.78280459  0.71708883     0.07840
H79         H  0.37861778  0.71296728  0.77807276     0.09040
Cu80       Cu  0.31445540  0.74738893  0.69376806     0.44170
Cu81       Cu  0.31803503  0.68962212  0.74685164     0.41990
Cu82       Cu  0.25882130  0.69223327  0.69483680     0.43880
N83         N  0.28270883  0.74373361  0.66231540    -0.34580
N84         N  0.26183085  0.72403988  0.66306347    -0.28830
C85         C  0.24478309  0.72746709  0.63965773    -0.04930
C86         C  0.25572279  0.75017181  0.62341128     0.07290
C87         C  0.27978001  0.75994815  0.63823814     0.01080
H88         H  0.22626407  0.71399410  0.63451488     0.08730
H89         H  0.29410039  0.77750822  0.63202257     0.07810
N90         N  0.26268528  0.66077136  0.72686792    -0.36020
N91         N  0.28467694  0.65931421  0.74524598    -0.28200
C92         C  0.28143070  0.63564179  0.76208188    -0.03440
C93         C  0.25608206  0.62184752  0.75407541     0.05170
C94         C  0.24471461  0.63825493  0.73174627     0.03260
H95         H  0.29640565  0.62899598  0.77888112     0.08370
H96         H  0.22520294  0.63381461  0.71950381     0.07200
N97         N  0.34804548  0.74421911  0.28184370    -0.27190
N98         N  0.34653263  0.72522880  0.26048997    -0.35050
C99         C  0.36913273  0.72942886  0.24251719     0.01150
C100        C  0.38544918  0.75210927  0.25316295     0.07180
C101        C  0.37164815  0.76096088  0.27809264    -0.05920
H102        H  0.37371015  0.71647347  0.22356816     0.07840
H103        H  0.37849135  0.77793725  0.29270073     0.09040
Cu104      Cu  0.31498932  0.69330597  0.25775080     0.44170
Cu105      Cu  0.31888528  0.74588646  0.31580321     0.41990
Cu106      Cu  0.26203946  0.69193754  0.31557147     0.43880
N107        N  0.28339881  0.66157844  0.26207225    -0.34580
N108        N  0.26463816  0.66062327  0.28373457    -0.28830
C109        C  0.24845783  0.63645518  0.28143182    -0.04930
C110        C  0.25730031  0.62181024  0.25699056     0.07290
C111        C  0.27933944  0.63827300  0.24511106     0.01080
H112        H  0.23145921  0.63014234  0.29634544     0.08730
H113        H  0.29191685  0.63337570  0.22595586     0.07810
N114        N  0.26579701  0.72383844  0.34668787    -0.36020
N115        N  0.28720668  0.74294292  0.34735808    -0.28200
C116        C  0.28456292  0.75929914  0.37125339    -0.03440
C117        C  0.26018628  0.75013346  0.38600259     0.05170
C118        C  0.24867108  0.72779155  0.36989315     0.03260
H119        H  0.29919624  0.77660991  0.37731133     0.08370
H120        H  0.22967435  0.71492989  0.37496827     0.07200
N121        N  0.66195688  0.74631929  0.28295694    -0.27190
N122        N  0.66240774  0.72621113  0.26258823    -0.35050
C123        C  0.63915125  0.72973173  0.24533809     0.01150
C124        C  0.62349487  0.75316313  0.25536434     0.07180
C125        C  0.63839869  0.76318429  0.27920879    -0.05920
H126        H  0.63384697  0.71600037  0.22714441     0.07840
H127        H  0.63239904  0.78112324  0.29303362     0.09040
Cu128      Cu  0.69372467  0.69404567  0.25986630     0.44170
Cu129      Cu  0.69266015  0.74928906  0.31557349     0.41990
Cu130      Cu  0.74489009  0.69066109  0.31903909     0.43880
N131        N  0.72504540  0.66201759  0.26403298    -0.34580
N132        N  0.74292755  0.66010979  0.28634682    -0.28830
C133        C  0.75903301  0.63589803  0.28375435    -0.04930
C134        C  0.75113966  0.62227543  0.25841094     0.07290
C135        C  0.72965921  0.63935087  0.24634879     0.01080
H136        H  0.77537380  0.62887427  0.29907234     0.08730
H137        H  0.71770709  0.63520329  0.22664104     0.07810
N138        N  0.74330736  0.72434002  0.34854718    -0.36020
N139        N  0.72463034  0.74611205  0.34696435    -0.28200
C140        C  0.72923685  0.76418463  0.36929689    -0.03440
C141        C  0.75175111  0.75308800  0.38564032     0.05170
C142        C  0.76012030  0.72781638  0.37205961     0.03260
H143        H  0.71663249  0.78349734  0.37370774     0.08370
H144        H  0.77698584  0.71292715  0.37886181     0.07200
N145        N  0.66229093  0.26094249  0.28359590    -0.27190
N146        N  0.66337666  0.28082508  0.26290565    -0.35050
C147        C  0.64002937  0.27795149  0.24569496     0.01150
C148        C  0.62361012  0.25516645  0.25606494     0.07180
C149        C  0.63822221  0.24480018  0.28004201    -0.05920
H150        H  0.63526412  0.29160688  0.22720296     0.07840
H151        H  0.63171859  0.22708438  0.29403703     0.09040
Cu152      Cu  0.69561173  0.31191049  0.25972529     0.44170
Cu153      Cu  0.69298404  0.25747087  0.31628878     0.41990
Cu154      Cu  0.74483696  0.31655677  0.32030796     0.43880
N155        N  0.72641226  0.34422634  0.26418778    -0.34580
N156        N  0.74329287  0.34689510  0.28716651    -0.28830
C157        C  0.75876027  0.37154632  0.28475430    -0.04930
C158        C  0.75152887  0.38459600  0.25881399     0.07290
C159        C  0.73112523  0.36673811  0.24622366     0.01080
H160        H  0.77425644  0.37922489  0.30056574     0.08730
H161        H  0.71980380  0.37033703  0.22601598     0.07810
N162        N  0.74350007  0.28233578  0.34947300    -0.36020
N163        N  0.72510363  0.26036931  0.34763014    -0.28200
C164        C  0.73001555  0.24190632  0.36972027    -0.03440
C165        C  0.75242710  0.25294104  0.38618042     0.05170
C166        C  0.76038224  0.27860627  0.37292686     0.03260
H167        H  0.71761127  0.22240967  0.37395822     0.08370
H168        H  0.77701412  0.29360079  0.37992845     0.07200
N169        N  0.79138298  0.44399584  0.78774297    -0.27190
N170        N  0.77189751  0.45853884  0.77244661    -0.35050
C171        C  0.75532307  0.43960637  0.75776734     0.01150
C172        C  0.76500749  0.41194822  0.76402240     0.07180
C173        C  0.78787323  0.41540219  0.78300467    -0.05920
H174        H  0.73781970  0.44557282  0.74330920     0.07840
H175        H  0.80097634  0.39844841  0.79265911     0.09040
Cu176      Cu  0.76936759  0.50344358  0.77119187     0.44170
Cu177      Cu  0.82196326  0.46372345  0.81414000     0.41990
Cu178      Cu  0.82297924  0.54238321  0.81313016     0.43880
N179        N  0.77238155  0.54831892  0.77214798    -0.34580
N180        N  0.79212051  0.56255218  0.78729201    -0.28830
C181        C  0.78869767  0.59121744  0.78279344    -0.04930
C182        C  0.76570633  0.59506078  0.76402892     0.07290
C183        C  0.75581676  0.56754199  0.75766971     0.01080
H184        H  0.80201161  0.60796050  0.79239367     0.08730
H185        H  0.73811404  0.56187537  0.74338079     0.07810
N186        N  0.85142569  0.51726940  0.83739576    -0.36020
N187        N  0.85086007  0.48856954  0.83800412    -0.28200
C188        C  0.87108086  0.47900032  0.85675323    -0.03440
C189        C  0.88533970  0.50278624  0.86805773     0.05170
C190        C  0.87209998  0.52669780  0.85564548     0.03260
H191        H  0.87461691  0.45644672  0.86232709     0.08370
H192        H  0.87643480  0.54927772  0.86032858     0.07200
N193        N  0.21697251  0.56283163  0.78887536    -0.27190
N194        N  0.23709704  0.54814751  0.77465565    -0.35050
C195        C  0.25433910  0.56695339  0.76042035     0.01150
C196        C  0.24440911  0.59468699  0.76581532     0.07180
C197        C  0.22067336  0.59137709  0.78379536    -0.05920
H198        H  0.27238395  0.56084457  0.74672571     0.07840
H199        H  0.20714238  0.60841220  0.79258777     0.09040
Cu200      Cu  0.23928816  0.50319016  0.77405516     0.44170
Cu201      Cu  0.18554061  0.54329081  0.81460209     0.41990
Cu202      Cu  0.18298029  0.46452022  0.81321393     0.43880
N203        N  0.23536841  0.45834828  0.77441762    -0.34580
N204        N  0.21428426  0.44420125  0.78786562    -0.28830
C205        C  0.21725396  0.41559092  0.78273438    -0.04930
C206        C  0.24150232  0.41169214  0.76555810     0.07290
C207        C  0.25251999  0.43913494  0.76073999     0.01080
H208        H  0.20302969  0.39888880  0.79114894     0.08730
H209        H  0.27133301  0.44478425  0.74787072     0.07810
N210        N  0.15544887  0.49003780  0.83824133    -0.36020
N211        N  0.15657611  0.51872556  0.83890273    -0.28200
C212        C  0.13696905  0.52853799  0.85814505    -0.03440
C213        C  0.12254567  0.50495273  0.86981420     0.05170
C214        C  0.13501249  0.48088187  0.85699906     0.03260
H215        H  0.13389974  0.55112467  0.86371127     0.08370
H216        H  0.13023083  0.45835346  0.86164808     0.07200
N217        N  0.78139055  0.44488976  0.21807238    -0.27190
N218        N  0.77176542  0.45868258  0.24123189    -0.35050
C219        C  0.76026178  0.43919532  0.25970937     0.01150
C220        C  0.76248884  0.41206501  0.24727595     0.07180
C221        C  0.77578025  0.41640285  0.22088501    -0.05920
H222        H  0.75017243  0.44450411  0.28016901     0.07840
H223        H  0.78120083  0.40007294  0.20499675     0.09040
Cu224      Cu  0.77258228  0.50352905  0.24535244     0.44170
Cu225      Cu  0.80271115  0.46495515  0.18416457     0.41990
Cu226      Cu  0.80641452  0.54281640  0.18583852     0.43880
N227        N  0.77220872  0.54841618  0.24124620    -0.34580
N228        N  0.78347147  0.56254088  0.21893207    -0.28830
C229        C  0.77772012  0.59101770  0.22166417    -0.04930
C230        C  0.76254347  0.59495057  0.24708208     0.07290
C231        C  0.75942166  0.56763061  0.25903837     0.01080
H232        H  0.78423745  0.60760012  0.20635418     0.08730
H233        H  0.74798543  0.56202245  0.27873345     0.07810
N234        N  0.82858646  0.51777143  0.15596455    -0.36020
N235        N  0.82680559  0.48915472  0.15514216    -0.28200
C236        C  0.84500910  0.47908046  0.13478343    -0.03440
C237        C  0.85867463  0.50251089  0.12204686     0.05170
C238        C  0.84809078  0.52669050  0.13618352     0.03260
H239        H  0.84918071  0.45634546  0.13069548     0.08370
H240        H  0.85501802  0.54894100  0.13323459     0.07200
N241        N  0.22426560  0.56225728  0.21811308    -0.27190
N242        N  0.23649681  0.54793449  0.23976275    -0.35050
C243        C  0.24971784  0.56703827  0.25734306     0.01150
C244        C  0.24574524  0.59449114  0.24592144     0.07180
C245        C  0.22967821  0.59075009  0.22106726    -0.05920
H246        H  0.26196110  0.56129136  0.27650114     0.07840
H247        H  0.22247085  0.60745220  0.20619868     0.09040
Cu248      Cu  0.23635063  0.50299596  0.24300477     0.44170
Cu249      Cu  0.20095511  0.54269692  0.18536755     0.41990
Cu250      Cu  0.20163858  0.46463153  0.18343105     0.43880
N251        N  0.23602916  0.45815470  0.23880958    -0.34580
N252        N  0.22426864  0.44428478  0.21668492    -0.28830
C253        C  0.22940681  0.41567010  0.21963561    -0.04930
C254        C  0.24475739  0.41142151  0.24494429     0.07290
C255        C  0.24861654  0.43869188  0.25659418     0.01080
H256        H  0.22249675  0.39921994  0.20447133     0.08730
H257        H  0.26037415  0.44408638  0.27611248     0.07810
N258        N  0.17908551  0.49012501  0.15383703    -0.36020
N259        N  0.17870547  0.51878295  0.15483021    -0.28200
C260        C  0.16027079  0.52889817  0.13463876    -0.03440
C261        C  0.14882351  0.50552931  0.11982865     0.05170
C262        C  0.16093118  0.48126001  0.13284758     0.03260
H263        H  0.15442389  0.55149944  0.13197436     0.08370
H264        H  0.15538936  0.45882493  0.12877549     0.07200
O265        O  0.97288702  0.47835576  0.97624755    -0.72840
O266        O  0.03520239  0.47906624  0.03897118    -0.73820
O267        O  0.97136996  0.47720024  0.03837928    -0.62440
O268        O  0.03434800  0.47935346  0.97683166    -0.70850
O269        O  0.03399409  0.52751665  0.97780218    -0.70410
O270        O  0.96977818  0.52528697  0.03846659    -0.61660
O271        O  0.03318035  0.52707646  0.04004196    -0.74170
O272        O  0.97254347  0.52652743  0.97627813    -0.72950
Cu273      Cu  0.00347974  0.47683477  0.00786788     1.04560
Cu274      Cu  0.00232022  0.52824130  0.00841326     1.04330
C275        C  0.96376967  0.50245193  0.96577698     0.93350
C276        C  0.04469656  0.50330902  0.04873786     0.92490
C277        C  0.95983820  0.50082537  0.04730386     0.84640
C278        C  0.04344215  0.50370553  0.96712238     0.90910
N279        N  0.44543906  0.79201999  0.78381039    -0.27190
N280        N  0.45921522  0.77199020  0.76863622    -0.35050
C281        C  0.43960350  0.75493598  0.75546548     0.01150
C282        C  0.41226317  0.76488260  0.76256606     0.07180
C283        C  0.41662942  0.78845761  0.78042179    -0.05920
H284        H  0.44487948  0.73678479  0.74162371     0.07840
H285        H  0.40014538  0.80172789  0.79056129     0.09040
Cu286      Cu  0.50399255  0.76864880  0.76673850     0.44170
Cu287      Cu  0.46667650  0.82170188  0.81003489     0.41990
Cu288      Cu  0.54271441  0.80541575  0.82378596     0.43880
N289        N  0.54874967  0.76810531  0.77073198    -0.34580
N290        N  0.56281681  0.78007860  0.79259493    -0.28770
C291        C  0.59141968  0.77498003  0.78949082    -0.04930
C292        C  0.59541589  0.75952940  0.76425018     0.07290
C293        C  0.56803084  0.75556135  0.75283226     0.01080
H294        H  0.60808656  0.78260138  0.80410403     0.08730
H295        H  0.56246953  0.74404711  0.73323602     0.07810
N296        N  0.51931690  0.83690328  0.84578810    -0.36020
N297        N  0.49231876  0.84410930  0.83936825    -0.28200
C298        C  0.48437245  0.86670566  0.85586867    -0.03440
C299        C  0.50739608  0.87424960  0.87377522     0.05170
C300        C  0.52902829  0.85437379  0.86693050     0.03260
H301        H  0.46319624  0.87684221  0.85493285     0.08370
H302        H  0.55013844  0.85208038  0.87665861     0.07200
N303        N  0.56368041  0.21662285  0.78354048    -0.27190
N304        N  0.54936412  0.23832565  0.77129133    -0.35050
C305        C  0.56844108  0.25597225  0.75795777     0.01150
C306        C  0.59589212  0.24455886  0.76177332     0.07180
C307        C  0.59218332  0.21961858  0.77794372    -0.05920
H308        H  0.56268012  0.27530374  0.74589933     0.07840
H309        H  0.60894395  0.20491229  0.78537201     0.09040
Cu310      Cu  0.50449558  0.24216236  0.77180201     0.44170
Cu311      Cu  0.54413511  0.18440642  0.80806855     0.41990
Cu312      Cu  0.46570325  0.18612500  0.81057557     0.43880
N313        N  0.45958428  0.23910302  0.77281973    -0.34580
N314        N  0.44543394  0.21806516  0.78631816    -0.28830
C315        C  0.41678223  0.22130545  0.78167001    -0.04930
C316        C  0.41283249  0.24571639  0.76475466     0.07290
C317        C  0.44028852  0.25650905  0.75948232     0.01080
H318        H  0.40012578  0.20698589  0.79001064     0.08730
H319        H  0.44588305  0.27521828  0.74641233     0.07810
N320        N  0.49078278  0.15722081  0.83412362    -0.36020
N321        N  0.51946424  0.15633701  0.83305318    -0.28200
C322        C  0.52907710  0.13604312  0.85173130    -0.03440
C323        C  0.50524594  0.12350250  0.86493347     0.05170
C324        C  0.48137443  0.13762772  0.85356956     0.03260
H325        H  0.55171022  0.13160500  0.85620393     0.08370
H326        H  0.45888540  0.13447947  0.85959631     0.07200
N327        N  0.44539063  0.78814427  0.21722487    -0.27190
N328        N  0.45967064  0.77076426  0.23507189    -0.35050
C329        C  0.44045883  0.75512080  0.25050022     0.01150
C330        C  0.41292608  0.76300404  0.24174140     0.07180
C331        C  0.41670572  0.78395237  0.22070371    -0.05920
H332        H  0.44612987  0.73927993  0.26688910     0.07840
H333        H  0.39992075  0.79551753  0.20902445     0.09040
Cu334      Cu  0.50452048  0.76911804  0.23770812     0.44170
Cu335      Cu  0.46545530  0.81718405  0.18950910     0.41990
Cu336      Cu  0.54407258  0.81784816  0.19036899     0.43880
N337        N  0.54939885  0.77137770  0.23607754    -0.34580
N338        N  0.56385040  0.78912820  0.21873100    -0.28830
C339        C  0.59250099  0.78534202  0.22292887    -0.04930
C340        C  0.59608852  0.76425214  0.24387490     0.07290
C341        C  0.56845962  0.75581281  0.25178895     0.01080
H342        H  0.60940204  0.79710623  0.21162028     0.08730
H343        H  0.56261723  0.73961597  0.26776551     0.07810
N344        N  0.51915563  0.84497281  0.16460149    -0.36020
N345        N  0.49043577  0.84470557  0.16434642    -0.28200
C346        C  0.48086575  0.86472663  0.14540528    -0.03440
C347        C  0.50471897  0.87828839  0.13340737     0.05170
C348        C  0.52865319  0.86519273  0.14580504     0.03260
H349        H  0.45825706  0.86897595  0.14063419     0.08370
H350        H  0.55124953  0.86988247  0.14140150     0.07200
N351        N  0.56406429  0.21901645  0.21979737    -0.27190
N352        N  0.54956241  0.23807664  0.23554950    -0.35050
C353        C  0.56858561  0.25405914  0.25078933     0.01150
C354        C  0.59621645  0.24448110  0.24424032     0.07180
C355        C  0.59266460  0.22231438  0.22459417    -0.05920
H356        H  0.56270814  0.27109880  0.26574772     0.07840
H357        H  0.60955196  0.20934675  0.21472263     0.09040
Cu358      Cu  0.50460092  0.24062843  0.23651213     0.44170
Cu359      Cu  0.54450308  0.18856536  0.19341597     0.41990
Cu360      Cu  0.46642794  0.18318123  0.19909806     0.43880
N361        N  0.45974619  0.23663926  0.23595404    -0.34580
N362        N  0.44587218  0.21503906  0.22320685    -0.28830
C363        C  0.41719850  0.21791375  0.22802311    -0.04930
C364        C  0.41293647  0.24266418  0.24422294     0.07290
C365        C  0.44024340  0.25405469  0.24888882     0.01080
H366        H  0.40071543  0.20318680  0.22016727     0.08730
H367        H  0.44560877  0.27320366  0.26127500     0.07810
N368        N  0.49155817  0.15611842  0.17350088    -0.36020
N369        N  0.52004573  0.15845470  0.17098307    -0.28200
C370        C  0.52952289  0.13924308  0.15126989    -0.03440
C371        C  0.50590220  0.12369463  0.14121941     0.05170
C372        C  0.48216874  0.13526972  0.15553093     0.03260
H373        H  0.55169232  0.13801290  0.14370044     0.08370
H374        H  0.45959163  0.12962489  0.15234123     0.07200
O375        O  0.47748015  0.97474959  0.97151593    -0.72840
O376        O  0.47652695  0.03381741  0.03492229    -0.73820
O377        O  0.47696073  0.03634701  0.97268765    -0.62440
O378        O  0.47759136  0.97275134  0.03293344    -0.70850
O379        O  0.52578861  0.97484582  0.03401737    -0.70410
O380        O  0.52515695  0.03508612  0.97153273    -0.61660
O381        O  0.52450483  0.03640180  0.03332822    -0.74170
O382        O  0.52537220  0.97378431  0.97255746    -0.72950
Cu383      Cu  0.47545641  0.00447686  0.00299823     1.04560
Cu384      Cu  0.52688415  0.00511090  0.00288724     1.04330
C385        C  0.50137829  0.96443675  0.96214138     0.93350
C386        C  0.50024760  0.04476071  0.04400433     0.92490
C387        C  0.50111138  0.04500667  0.96203744     0.84640
C388        C  0.50192231  0.96411190  0.04306734     0.90910
N389        N  0.34648987  0.26065198  0.28234033    -0.27190
N390        N  0.34724179  0.28186873  0.26299094    -0.35050
C391        C  0.37090220  0.27856813  0.24622545     0.01150
C392        C  0.38534688  0.25388526  0.25523080     0.07180
C393        C  0.36937648  0.24301433  0.27809382    -0.05920
H394        H  0.37716496  0.29312304  0.22889514     0.07840
H395        H  0.37449092  0.22423218  0.29125837     0.09040
Cu396      Cu  0.31627120  0.31447680  0.26041759     0.44170
Cu397      Cu  0.31581820  0.25788907  0.31510393     0.41990
Cu398      Cu  0.26066941  0.31392619  0.31585767     0.43880
N399        N  0.28342816  0.34517362  0.26309199    -0.34580
N400        N  0.26364359  0.34547972  0.28385574    -0.28830
C401        C  0.24671028  0.36906575  0.28050684    -0.04930
C402        C  0.25606761  0.38393830  0.25625890     0.07290
C403        C  0.27930394  0.36827758  0.24569132     0.01080
H404        H  0.22895436  0.37493014  0.29467462     0.08730
H405        H  0.29271142  0.37367449  0.22721027     0.07810
N406        N  0.26330497  0.28098974  0.34647041    -0.36020
N407        N  0.28398534  0.26104649  0.34670980    -0.28200
C408        C  0.28078997  0.24423764  0.37036932    -0.03440
C409        C  0.25673794  0.25386469  0.38538473     0.05170
C410        C  0.24611336  0.27710371  0.36970550     0.03260
H411        H  0.29496937  0.22643072  0.37622220     0.08370
H412        H  0.22777535  0.29070833  0.37520182     0.07200
N413        N  0.78631867  0.79106431  0.44495849    -0.27190
N414        N  0.77128270  0.77127563  0.45934968    -0.35050
C415        C  0.75684633  0.75457593  0.44037992     0.01150
C416        C  0.76297517  0.76456005  0.41287142     0.07180
C417        C  0.78162864  0.78769580  0.41643932    -0.05920
H418        H  0.74267192  0.73676792  0.44621388     0.07840
H419        H  0.79120822  0.80098229  0.39961418     0.09040
Cu420      Cu  0.77030063  0.76853927  0.50407962     0.44170
Cu421      Cu  0.81266542  0.82145161  0.46480943     0.41990
Cu422      Cu  0.81401834  0.82056255  0.54340105     0.43880
N423        N  0.77171849  0.77086629  0.54880912    -0.34580
N424        N  0.78764153  0.78981312  0.56326210    -0.28830
C425        C  0.78335963  0.78577466  0.59181297    -0.04930
C426        C  0.76386177  0.76326652  0.59530342     0.07290
C427        C  0.75688209  0.75430937  0.56772350     0.01080
H428        H  0.79353017  0.79839274  0.60870906     0.08730
H429        H  0.74199729  0.73716339  0.56180636     0.07810
N430        N  0.83810733  0.84913718  0.51813413    -0.36020
N431        N  0.83755708  0.84938440  0.48951065    -0.28200
C432        C  0.85612148  0.86968562  0.47972096    -0.03440
C433        C  0.86866765  0.88302045  0.50329774     0.05170
C434        C  0.85706261  0.86932950  0.52730286     0.03260
H435        H  0.86067284  0.87391612  0.45712779     0.08370
H436        H  0.86252296  0.87324977  0.54971870     0.07200
N437        N  0.22052693  0.78266306  0.44512733    -0.27190
N438        N  0.24191378  0.77008902  0.45957526    -0.35050
C439        C  0.25980632  0.75703713  0.44062091     0.01150
C440        C  0.24886690  0.76156102  0.41315962     0.07180
C441        C  0.22395236  0.77769406  0.41671630    -0.05920
H442        H  0.27883933  0.74454646  0.44645729     0.07840
H443        H  0.20935500  0.78523683  0.39995959     0.09040
Cu444      Cu  0.24440508  0.76970934  0.50441047     0.44170
Cu445      Cu  0.18771301  0.80611174  0.46427966     0.41990
Cu446      Cu  0.18517850  0.80609497  0.54203813     0.43880
N447        N  0.23945210  0.76986164  0.54905875    -0.34580
N448        N  0.21743006  0.78231110  0.56263192    -0.28830
C449        C  0.21985657  0.77717163  0.59120065    -0.04930
C450        C  0.24468102  0.76101427  0.59573127     0.07290
C451        C  0.25665806  0.75677856  0.56868784     0.01080
H452        H  0.20475843  0.78478068  0.60744346     0.08730
H453        H  0.27609837  0.74462880  0.56357936     0.07810
N454        N  0.15671748  0.82962695  0.51624786    -0.36020
N455        N  0.15792600  0.82969690  0.48767404    -0.28200
C456        C  0.13822507  0.84850655  0.47721587    -0.03440
C457        C  0.12362074  0.86049443  0.50031684     0.05170
C458        C  0.13602983  0.84835294  0.52476421     0.03260
H459        H  0.13548075  0.85381735  0.45455725     0.08370
H460        H  0.13130018  0.85371952  0.54704852     0.07200
N461        N  0.78703855  0.21484132  0.44579917    -0.27190
N462        N  0.77248775  0.23507480  0.45998456    -0.35050
C463        C  0.75806236  0.25176378  0.44087464     0.01150
C464        C  0.76360698  0.24132017  0.41348462     0.07180
C465        C  0.78197094  0.21791966  0.41726946    -0.05920
H466        H  0.74431616  0.26993281  0.44654401     0.07840
H467        H  0.79122145  0.20435390  0.40056571     0.09040
Cu468      Cu  0.77195784  0.23866248  0.50467180     0.44170
Cu469      Cu  0.81361000  0.18446159  0.46587119     0.41990
Cu470      Cu  0.81388200  0.18557297  0.54435117     0.43880
N471        N  0.77313886  0.23646039  0.54945866    -0.34580
N472        N  0.78799368  0.21661258  0.56397115    -0.28830
C473        C  0.78350081  0.22036562  0.59247846    -0.04930
C474        C  0.76518080  0.24381044  0.59593993     0.07290
C475        C  0.75898216  0.25354240  0.56834756     0.01080
H476        H  0.79291731  0.20706010  0.60937998     0.08730
H477        H  0.74490069  0.27139763  0.56240545     0.07810
N478        N  0.83903954  0.15758742  0.51984050    -0.36020
N479        N  0.83903646  0.15721781  0.49121569    -0.28200
C480        C  0.85838035  0.13736944  0.48206307    -0.03440
C481        C  0.87086985  0.12455589  0.50608831     0.05170
C482        C  0.85834653  0.13797914  0.52965870     0.03260
H483        H  0.86334721  0.13296425  0.45961879     0.08370
H484        H  0.86329918  0.13419265  0.55224133     0.07200
N485        N  0.21751862  0.22265065  0.44610915    -0.27190
N486        N  0.23968797  0.23470956  0.45975249    -0.35050
C487        C  0.25740221  0.24712134  0.44012205     0.01150
C488        C  0.24564836  0.24280071  0.41299350     0.07180
C489        C  0.22035405  0.22738918  0.41750264    -0.05920
H490        H  0.27692869  0.25907965  0.44529032     0.07840
H491        H  0.20510169  0.22019246  0.40123704     0.09040
Cu492      Cu  0.24386922  0.23558859  0.50452975     0.44170
Cu493      Cu  0.18437024  0.20015937  0.46673933     0.41990
Cu494      Cu  0.18590343  0.20045950  0.54455967     0.43880
N495        N  0.24044581  0.23633287  0.54938101    -0.34580
N496        N  0.21868702  0.22429277  0.56375730    -0.28830
C497        C  0.22160802  0.23010090  0.59209315    -0.04930
C498        C  0.24654026  0.24623383  0.59571343     0.07290
C499        C  0.25806445  0.24978575  0.56831892     0.01080
H500        H  0.20671766  0.22301667  0.60879946     0.08730
H501        H  0.27736306  0.26185320  0.56249493     0.07810
N502        N  0.15556137  0.17756050  0.52079775    -0.36020
N503        N  0.15484725  0.17759199  0.49221665    -0.28200
C504        C  0.13401775  0.15921816  0.48334728    -0.03440
C505        C  0.12068744  0.14736934  0.50750908     0.05170
C506        C  0.13525509  0.15914358  0.53086277     0.03260
H507        H  0.13025093  0.15342565  0.46099796     0.08370
H508        H  0.13224951  0.15365238  0.55344809     0.07200
O509        O  0.03907724  0.03271297  0.52850386    -0.72840
O510        O  0.97541570  0.97172990  0.52709357    -0.73820
O511        O  0.03765088  0.96944094  0.52662778    -0.62440
O512        O  0.97663946  0.03316092  0.52877702    -0.70850
O513        O  0.97621111  0.03460156  0.48075583    -0.70410
O514        O  0.03788851  0.97174670  0.47869917    -0.61660
O515        O  0.97540228  0.97311235  0.47907870    -0.74170
O516        O  0.03838259  0.03504425  0.48063032    -0.72950
Cu517      Cu  0.00742452  0.00170591  0.52939490     1.04560
Cu518      Cu  0.00718601  0.00364450  0.47813742     1.04330
C519        C  0.04810447  0.04424471  0.50489990     0.93350
C520        C  0.96497815  0.96338761  0.50288254     0.92490
C521        C  0.04686059  0.96006550  0.50223970     0.84640
C522        C  0.96631521  0.04323476  0.50509168     0.90910
C523        C  0.11135408  0.09642709  0.52054260    -0.05680
C524        C  0.10100522  0.12203646  0.50803808     0.00250
C525        C  0.07324028  0.12239762  0.49513126    -0.08320
C526        C  0.05750510  0.09620314  0.49345211    -0.05700
C527        C  0.06776250  0.07021235  0.50574926     0.00230
C528        C  0.09538827  0.07044996  0.51944430    -0.08230
C529        C  0.11041715  0.04284386  0.52813364     0.62150
H530        H  0.13297085  0.09661726  0.52978467     0.12840
H531        H  0.03691641  0.09589412  0.48256681     0.12850
C532        C  0.05978090  0.15065552  0.48478536     0.62380
F533        F  0.13628279  0.04779135  0.54257339    -0.22790
F534        F  0.11677450  0.02825004  0.50296426    -0.20120
F535        F  0.09289893  0.02638108  0.54603876    -0.19790
F536        F  0.07527718  0.16173470  0.46168085    -0.19850
F537        F  0.05999824  0.17057966  0.50713912    -0.20170
F538        F  0.03133443  0.14694554  0.47599974    -0.22840
C539        C  0.92320300  0.11378047  0.50535216    -0.05680
C540        C  0.89476495  0.10330206  0.50644899     0.00250
C541        C  0.88960303  0.07310797  0.50720528    -0.08320
C542        C  0.91355427  0.05399684  0.50727968    -0.05700
C543        C  0.94215071  0.06447491  0.50582150     0.00230
C544        C  0.94704624  0.09475787  0.50455449    -0.08230
C545        C  0.97722034  0.10673722  0.50060819     0.62150
H546        H  0.92649671  0.13704548  0.50431808     0.12840
H547        H  0.91013703  0.03075674  0.50799074     0.12850
C548        C  0.85883083  0.06151190  0.50746361     0.62380
F549        F  0.97765227  0.13676158  0.50168062    -0.22790
F550        F  0.98723338  0.09813915  0.47378756    -0.20120
F551        F  0.99531001  0.09625113  0.52212798    -0.19790
F552        F  0.84440990  0.07063246  0.48280109    -0.19850
F553        F  0.84427716  0.07164160  0.53158416    -0.20170
F554        F  0.85829023  0.03159351  0.50817911    -0.22840
C555        C  0.05595062  0.90682068  0.50630992    -0.05680
C556        C  0.06711116  0.93468580  0.50112240     0.00250
C557        C  0.09706437  0.93753235  0.49489740    -0.08320
C558        C  0.11469689  0.91266829  0.49372745    -0.05700
C559        C  0.10335115  0.88513318  0.49934900     0.00230
C560        C  0.07351266  0.88182656  0.50515363    -0.08230
C561        C  0.06041510  0.85190246  0.50935103     0.62150
H562        H  0.03363251  0.90469355  0.51152924     0.12840
H563        H  0.13780590  0.91462510  0.48979815     0.12850
C564        C  0.11092938  0.96686145  0.49361983     0.62380
F565        F  0.03067842  0.85311232  0.51320263    -0.22790
F566        F  0.07242911  0.83868268  0.53342148    -0.20120
F567        F  0.06602055  0.83511116  0.48521056    -0.19790
F568        F  0.10818851  0.97867355  0.52084334    -0.19850
F569        F  0.09713337  0.98399384  0.47319179    -0.20170
F570        F  0.14017279  0.96557290  0.48672360    -0.22840
C571        C  0.92093896  0.89342758  0.50230746    -0.05680
C572        C  0.89262577  0.90416524  0.50280303     0.00250
C573        C  0.88771767  0.93441140  0.50307826    -0.08320
C574        C  0.91183712  0.95334317  0.50268799    -0.05700
C575        C  0.94037972  0.94255786  0.50247631     0.00230
C576        C  0.94492478  0.91219945  0.50247825    -0.08230
C577        C  0.97506657  0.89984217  0.50397445     0.62150
H578        H  0.92405351  0.87011366  0.50235945     0.12840
H579        H  0.90860465  0.97661840  0.50286144     0.12850
C580        C  0.85703491  0.94618144  0.50402059     0.62380
F581        F  0.97508114  0.86982301  0.50282121    -0.22790
F582        F  0.98731682  0.90826866  0.52993389    -0.20120
F583        F  0.99124619  0.91022958  0.48092997    -0.19790
F584        F  0.84325963  0.93646696  0.52883071    -0.19850
F585        F  0.84178097  0.93675899  0.48005693    -0.20170
F586        F  0.85663536  0.97610378  0.50410257    -0.22840
C587        C  0.48535657  0.10903542  0.09439879    -0.05680
C588        C  0.50499129  0.10310203  0.11673075     0.00250
C589        C  0.52192270  0.07749607  0.11567473    -0.08320
C590        C  0.51971473  0.05957914  0.09115701    -0.05700
C591        C  0.50019312  0.06557732  0.06848581     0.00230
C592        C  0.48196031  0.09054504  0.07056252    -0.08230
C593        C  0.45906277  0.10004782  0.04886350     0.62150
H594        H  0.47221163  0.12855065  0.09567805     0.12840
H595        H  0.53297500  0.04019432  0.08977480     0.12850
C596        C  0.54111587  0.06830014  0.14080122     0.62380
F597        F  0.43290384  0.10400753  0.06307543    -0.22790
F598        F  0.45431565  0.08059245  0.02700244    -0.20120
F599        F  0.46735407  0.12620811  0.03662583    -0.19790
F600        F  0.52535578  0.06896632  0.16628925    -0.19850
F601        F  0.56461039  0.08675398  0.14302460    -0.20170
F602        F  0.55164532  0.04037237  0.13731015    -0.22840
C603        C  0.50356197  0.95083947  0.09465688    -0.05680
C604        C  0.50260795  0.94176936  0.06576641     0.00250
C605        C  0.50311404  0.91186946  0.05904420    -0.08320
C606        C  0.50390766  0.89164348  0.08183993    -0.05700
C607        C  0.50454454  0.90069428  0.11072662     0.00230
C608        C  0.50459182  0.93059908  0.11746375    -0.08230
C609        C  0.50573773  0.94083639  0.14859995     0.62150
H610        H  0.50350383  0.97390941  0.09915885     0.12840
H611        H  0.50398691  0.86857995  0.07733459     0.12850
C612        C  0.50275318  0.90160881  0.02792598     0.62380
F613        F  0.50573982  0.97082348  0.15048499    -0.22790
F614        F  0.53076407  0.93057880  0.16163862    -0.20120
F615        F  0.48184816  0.93045473  0.16352819    -0.19790
F616        F  0.52642181  0.91283715  0.01325005    -0.19850
F617        F  0.47755847  0.91100587  0.01472162    -0.20170
F618        F  0.50381050  0.87164519  0.02600163    -0.22840
C619        C  0.50903169  0.05477401  0.91020820    -0.05680
C620        C  0.50162445  0.06562573  0.93756862     0.00250
C621        C  0.49637163  0.09565074  0.94107306    -0.08320
C622        C  0.49831793  0.11396954  0.91681464    -0.05700
C623        C  0.50521909  0.10305101  0.88944515     0.00230
C624        C  0.51059776  0.07308068  0.88582348    -0.08230
C625        C  0.51715681  0.06059832  0.85621055     0.62150
H626        H  0.51323194  0.03173507  0.90806645     0.12840
H627        H  0.49390886  0.13697558  0.91888488     0.12850
C628        C  0.48750657  0.10805678  0.96995444     0.62380
F629        F  0.52052281  0.03074746  0.85716431    -0.22790
F630        F  0.54253160  0.07256385  0.84553948    -0.20120
F631        F  0.49458664  0.06694368  0.83747814    -0.19790
F632        F  0.50650446  0.09901371  0.99136327    -0.19850
F633        F  0.45979135  0.09853952  0.97613218    -0.20170
F634        F  0.48730140  0.13811086  0.96969885    -0.22840
C635        C  0.52849895  0.93577457  0.92558371    -0.05680
C636        C  0.50173434  0.94166274  0.93906950     0.00250
C637        C  0.47678039  0.92576351  0.93008336    -0.08320
C638        C  0.48032802  0.90343776  0.90965912    -0.05700
C639        C  0.50709703  0.89749023  0.89630803     0.00230
C640        C  0.53155731  0.91475868  0.90373505    -0.08230
C641        C  0.56080005  0.91216847  0.88868233     0.62150
H642        H  0.54737349  0.94815757  0.93203391     0.12840
H643        H  0.46178327  0.89034846  0.90376222     0.12850
C644        C  0.44627158  0.93218093  0.94111239     0.62380
F645        F  0.57768869  0.93664976  0.89295822    -0.22790
F646        F  0.55718307  0.90912771  0.85913840    -0.20120
F647        F  0.57583941  0.88868130  0.89974779    -0.19790
F648        F  0.43860144  0.96030460  0.93382712    -0.19850
F649        F  0.44502073  0.92862530  0.97076402    -0.20170
F650        F  0.42568206  0.91392092  0.92912651    -0.22840
C651        C  0.09750343  0.51753506  0.11173142    -0.05680
C652        C  0.12319064  0.50604128  0.10063527     0.00250
C653        C  0.12353216  0.49461350  0.07236824    -0.08320
C654        C  0.09711914  0.49275140  0.05699878    -0.05700
C655        C  0.07100020  0.50402928  0.06799915     0.00230
C656        C  0.07147978  0.51692006  0.09591042    -0.08230
C657        C  0.04418589  0.52671539  0.11058011     0.62150
H658        H  0.09784289  0.52611780  0.13352583     0.12840
H659        H  0.09673487  0.48269666  0.03609853     0.12850
C660        C  0.15198806  0.48625503  0.05811030     0.62380
F661        F  0.04915385  0.53854016  0.13764115    -0.22790
F662        F  0.02718991  0.50252750  0.11429449    -0.20120
F663        F  0.03034229  0.54740205  0.09387192    -0.19790
F664        F  0.16425034  0.46285691  0.07231944    -0.19850
F665        F  0.17095139  0.50953683  0.05922808    -0.20170
F666        F  0.14824241  0.47884125  0.02938739    -0.22840
C667        C  0.90621743  0.49684175  0.05527697    -0.05680
C668        C  0.93406527  0.49989898  0.06716201     0.00250
C669        C  0.93654141  0.50219526  0.09756928    -0.08320
C670        C  0.91146673  0.50328079  0.11480985    -0.05700
C671        C  0.88387944  0.50137509  0.10254873     0.00230
C672        C  0.88093004  0.49774987  0.07243590    -0.08230
C673        C  0.85111684  0.49526414  0.05876962     0.62150
H674        H  0.90429977  0.49356688  0.03253559     0.12840
H675        H  0.91317034  0.50546854  0.13808780     0.12850
C676        C  0.96570353  0.50302271  0.11152368     0.62380
F677        F  0.85271167  0.49249012  0.02905023    -0.22790
F678        F  0.83502482  0.51984035  0.06495035    -0.20120
F679        F  0.83693695  0.47116028  0.06970572    -0.19790
F680        F  0.97969443  0.52761918  0.10183647    -0.19850
F681        F  0.98069472  0.47823377  0.10365739    -0.20170
F682        F  0.96418545  0.50402305  0.14143820    -0.22840
C683        C  0.11258749  0.50930440  0.92201611    -0.05680
C684        C  0.10167202  0.50519869  0.89409097     0.00250
C685        C  0.07163071  0.50037501  0.89002611    -0.08320
C686        C  0.05314579  0.50049444  0.91439750    -0.05700
C687        C  0.06412713  0.50430471  0.94247903     0.00230
C688        C  0.09435858  0.50801751  0.94640662    -0.08230
C689        C  0.10757026  0.50695778  0.97621172     0.62150
H690        H  0.13580310  0.51205755  0.92462873     0.12840
H691        H  0.03001857  0.49721598  0.91176582     0.12850
C692        C  0.05941817  0.49526577  0.86001640     0.62380
F693        F  0.13711985  0.51247970  0.97575155    -0.22790
F694        F  0.10330524  0.47930680  0.98697532    -0.20120
F695        F  0.09451987  0.52711598  0.99411809    -0.19790
F696        F  0.07188756  0.47074144  0.84813020    -0.19850
F697        F  0.06540413  0.51893595  0.84251493    -0.20170
F698        F  0.02969370  0.49118233  0.86058776    -0.22840
C699        C  0.89509152  0.49778319  0.92005936    -0.05680
C700        C  0.90608908  0.50278411  0.89234888     0.00250
C701        C  0.93609007  0.50799561  0.88848405    -0.08320
C702        C  0.95445767  0.50768500  0.91295665    -0.05700
C703        C  0.94340718  0.50255465  0.94084594     0.00230
C704        C  0.91325517  0.49803873  0.94442970    -0.08230
C705        C  0.90031494  0.49483005  0.97409058     0.62150
H706        H  0.87195634  0.49422989  0.92245934     0.12840
H707        H  0.97753858  0.51142255  0.91050842     0.12850
C708        C  0.94836859  0.51335619  0.85852908     0.62380
F709        F  0.87048479  0.49126789  0.97318672    -0.22790
F710        F  0.90636555  0.51973676  0.98960894    -0.20120
F711        F  0.91231059  0.47078226  0.98751882    -0.19790
F712        F  0.93562538  0.53774590  0.84650788    -0.19850
F713        F  0.94273024  0.48964665  0.84111979    -0.20170
F714        F  0.97803671  0.51777198  0.85920095    -0.22840
loop_ 
_geom_bond_atom_site_label_1 
_geom_bond_atom_site_label_2 
_geom_bond_distance 
_geom_bond_site_symmetry_2 
_ccdc_geom_bond_type 
N1            N2   1.323       .  A
N1            C5   1.345       .  A
N1           Cu9   2.070       .  S
N2            C3   1.346       .  A
N2           Cu8   2.076       .  S
C3            C4   1.381       .  A
C3            H6   1.082       .  S
C4            C5   1.379       .  A
C4          C292   1.463       .  S
C5            H7   1.082       .  S
Cu8          N11   2.076       .  S
Cu9          N19   2.070       .  S
Cu10         N12   2.074       .  S
Cu10         N18   2.074       .  S
N11          N12   1.323       .  A
N11          C15   1.346       .  A
N12          C13   1.345       .  A
C13          C14   1.380       .  A
C13          H16   1.082       .  S
C14          C15   1.380       .  A
C14         C426   1.463       .  S
C15          H17   1.082       .  S
N18          N19   1.323       .  A
N18          C22   1.345       .  A
N19          C20   1.345       .  A
C20          C21   1.380       .  A
C20          H23   1.082       .  S
C21          C22   1.380       .  A
C21         C182   1.463       .  S
C22          H24   1.082       .  S
N25          N26   1.323       .  A
N25          C29   1.345       .  A
N25         Cu33   2.071       .  S
N26          C27   1.345       .  A
N26         Cu32   2.072       .  S
C27          C28   1.380       .  A
C27          H30   1.082       .  S
C28          C29   1.380       .  A
C28         C306   1.462       .  S
C29          H31   1.082       .  S
Cu32         N35   2.072       .  S
Cu33         N43   2.071       .  S
Cu34         N36   2.075       .  S
Cu34         N42   2.075       .  S
N35          N36   1.323       .  A
N35          C39   1.345       .  A
N36          C37   1.346       .  A
C37          C38   1.380       .  A
C37          H40   1.082       .  S
C38          C39   1.380       .  A
C38         C474   1.463       .  S
C39          H41   1.082       .  S
N42          N43   1.323       .  A
N42          C46   1.346       .  A
N43          C44   1.345       .  A
C44          C45   1.379       .  A
C44          H47   1.082       .  S
C45          C46   1.381       .  A
C45         C172   1.463       .  S
C46          H48   1.082       .  S
N49          N50   1.323       .  A
N49          C53   1.345       .  A
N49         Cu57   2.074       .  S
N50          C51   1.345       .  A
N50         Cu56   2.069       .  S
C51          C52   1.379       .  A
C51          H54   1.082       .  S
C52          C53   1.380       .  A
C52         C316   1.462       .  S
C53          H55   1.082       .  S
Cu56         N59   2.070       .  S
Cu57         N67   2.075       .  S
Cu58         N60   2.078       .  S
Cu58         N66   2.079       .  S
N59          N60   1.323       .  A
N59          C63   1.345       .  A
N60          C61   1.346       .  A
C61          C62   1.381       .  A
C61          H64   1.082       .  S
C62          C63   1.379       .  A
C62         C498   1.464       .  S
C63          H65   1.082       .  S
N66          N67   1.323       .  A
N66          C70   1.346       .  A
N67          C68   1.345       .  A
C68          C69   1.380       .  A
C68          H71   1.082       .  S
C69          C70   1.381       .  A
C69         C206   1.465       .  S
C70          H72   1.082       .  S
N73          N74   1.323       .  A
N73          C77   1.346       .  A
N73         Cu81   2.078       .  S
N74          C75   1.345       .  A
N74         Cu80   2.069       .  S
C75          C76   1.379       .  A
C75          H78   1.082       .  S
C76          C77   1.382       .  A
C76         C282   1.463       .  S
C77          H79   1.082       .  S
Cu80         N83   2.069       .  S
Cu81         N91   2.078       .  S
Cu82         N84   2.076       .  S
Cu82         N90   2.076       .  S
N83          N84   1.323       .  A
N83          C87   1.345       .  A
N84          C85   1.346       .  A
C85          C86   1.381       .  A
C85          H88   1.082       .  S
C86          C87   1.379       .  A
C86         C450   1.463       .  S
C87          H89   1.082       .  S
N90          N91   1.324       .  A
N90          C94   1.346       .  A
N91          C92   1.346       .  A
C92          C93   1.381       .  A
C92          H95   1.082       .  S
C93          C94   1.380       .  A
C93         C196   1.465       .  S
C94          H96   1.082       .  S
N97          N98   1.323       .  A
N97         C101   1.344       .  A
N97        Cu105   2.067       .  S
N98          C99   1.345       .  A
N98        Cu104   2.072       .  S
C99         C100   1.379       .  A
C99         H102   1.082       .  S
C100        C101   1.378       .  A
C100        C330   1.459       .  S
C101        H103   1.082       .  S
Cu104       N107   2.072       .  S
Cu105       N115   2.066       .  S
Cu106       N108   2.067       .  S
Cu106       N114   2.067       .  S
N107        N108   1.323       .  A
N107        C111   1.345       .  A
N108        C109   1.345       .  A
C109        C110   1.379       .  A
C109        H112   1.082       .  S
C110        C111   1.380       .  A
C110        C244   1.461       .  S
C111        H113   1.082       .  S
N114        N115   1.322       .  A
N114        C118   1.344       .  A
N115        C116   1.344       .  A
C116        C117   1.379       .  A
C116        H119   1.082       .  S
C117        C118   1.379       .  A
C117        C440   1.459       .  S
C118        H120   1.082       .  S
N121        N122   1.323       .  A
N121        C125   1.345       .  A
N121       Cu129   2.072       .  S
N122        C123   1.345       .  A
N122       Cu128   2.071       .  S
C123        C124   1.379       .  A
C123        H126   1.082       .  S
C124        C125   1.379       .  A
C124        C340   1.461       .  S
C125        H127   1.082       .  S
Cu128       N131   2.071       .  S
Cu129       N139   2.072       .  S
Cu130       N132   2.070       .  S
Cu130       N138   2.070       .  S
N131        N132   1.323       .  A
N131        C135   1.345       .  A
N132        C133   1.345       .  A
C133        C134   1.380       .  A
C133        H136   1.082       .  S
C134        C135   1.380       .  A
C134        C230   1.462       .  S
C135        H137   1.082       .  S
N138        N139   1.323       .  A
N138        C142   1.345       .  A
N139        C140   1.345       .  A
C140        C141   1.380       .  A
C140        H143   1.082       .  S
C141        C142   1.379       .  A
C141        C416   1.461       .  S
C142        H144   1.082       .  S
N145        N146   1.323       .  A
N145        C149   1.345       .  A
N145       Cu153   2.075       .  S
N146        C147   1.344       .  A
N146       Cu152   2.068       .  S
C147        C148   1.379       .  A
C147        H150   1.082       .  S
C148        C149   1.380       .  A
C148        C354   1.461       .  S
C149        H151   1.082       .  S
Cu152       N155   2.068       .  S
Cu153       N163   2.075       .  S
Cu154       N156   2.071       .  S
Cu154       N162   2.072       .  S
N155        N156   1.322       .  A
N155        C159   1.344       .  A
N156        C157   1.345       .  A
C157        C158   1.380       .  A
C157        H160   1.082       .  S
C158        C159   1.379       .  A
C158        C220   1.462       .  S
C159        H161   1.082       .  S
N162        N163   1.323       .  A
N162        C166   1.345       .  A
N163        C164   1.346       .  A
C164        C165   1.381       .  A
C164        H167   1.082       .  S
C165        C166   1.379       .  A
C165        C464   1.463       .  S
C166        H168   1.082       .  S
N169        N170   1.323       .  A
N169        C173   1.346       .  A
N169       Cu177   2.075       .  S
N170        C171   1.345       .  A
N170       Cu176   2.073       .  S
C171        C172   1.380       .  A
C171        H174   1.082       .  S
C172        C173   1.380       .  A
C173        H175   1.082       .  S
Cu176       N179   2.073       .  S
Cu177       N187   2.076       .  S
Cu178       N180   2.074       .  S
Cu178       N186   2.074       .  S
N179        N180   1.323       .  A
N179        C183   1.345       .  A
N180        C181   1.345       .  A
C181        C182   1.380       .  A
C181        H184   1.082       .  S
C182        C183   1.380       .  A
C183        H185   1.082       .  S
N186        N187   1.323       .  A
N186        C190   1.345       .  A
N187        C188   1.345       .  A
C188        C189   1.382       .  A
C188        H191   1.082       .  S
C189        C190   1.382       .  A
C189        C700   1.474       .  S
C190        H192   1.082       .  S
N193        N194   1.323       .  A
N193        C197   1.346       .  A
N193       Cu201   2.076       .  S
N194        C195   1.345       .  A
N194       Cu200   2.074       .  S
C195        C196   1.380       .  A
C195        H198   1.082       .  S
C196        C197   1.381       .  A
C197        H199   1.082       .  S
Cu200       N203   2.074       .  S
Cu201       N211   2.077       .  S
Cu202       N204   2.081       .  S
Cu202       N210   2.082       .  S
N203        N204   1.323       .  A
N203        C207   1.345       .  A
N204        C205   1.347       .  A
C205        C206   1.382       .  A
C205        H208   1.082       .  S
C206        C207   1.380       .  A
C207        H209   1.082       .  S
N210        N211   1.323       .  A
N210        C214   1.346       .  A
N211        C212   1.346       .  A
C212        C213   1.382       .  A
C212        H215   1.082       .  S
C213        C214   1.383       .  A
C213        C684   1.477       .  S
C214        H216   1.082       .  S
N217        N218   1.323       .  A
N217        C221   1.344       .  A
N217       Cu225   2.065       .  S
N218        C219   1.346       .  A
N218       Cu224   2.076       .  S
C219        C220   1.381       .  A
C219        H222   1.082       .  S
C220        C221   1.378       .  A
C221        H223   1.082       .  S
Cu224       N227   2.076       .  S
Cu225       N235   2.065       .  S
Cu226       N228   2.071       .  S
Cu226       N234   2.071       .  S
N227        N228   1.323       .  A
N227        C231   1.345       .  A
N228        C229   1.345       .  A
C229        C230   1.379       .  A
C229        H232   1.082       .  S
C230        C231   1.380       .  A
C231        H233   1.082       .  S
N234        N235   1.322       .  A
N234        C238   1.345       .  A
N235        C236   1.344       .  A
C236        C237   1.380       .  A
C236        H239   1.082       .  S
C237        C238   1.382       .  A
C237        C671   1.470       .  S
C238        H240   1.082       .  S
N241        N242   1.323       .  A
N241        C245   1.344       .  A
N241       Cu249   2.065       .  S
N242        C243   1.346       .  A
N242       Cu248   2.075       .  S
C243        C244   1.381       .  A
C243        H246   1.082       .  S
C244        C245   1.378       .  A
C245        H247   1.082       .  S
Cu248       N251   2.076       .  S
Cu249       N259   2.066       .  S
Cu250       N252   2.078       .  S
Cu250       N258   2.078       .  S
N251        N252   1.324       .  A
N251        C255   1.346       .  A
N252        C253   1.346       .  A
C253        C254   1.380       .  A
C253        H256   1.082       .  S
C254        C255   1.380       .  A
C254        C402   1.464       .  S
C255        H257   1.082       .  S
N258        N259   1.321       .  A
N258        C262   1.345       .  A
N259        C260   1.344       .  A
C260        C261   1.382       .  A
C260        H263   1.082       .  S
C261        C262   1.385       .  A
C261        C652   1.477       .  S
C262        H264   1.082       .  S
O265       Cu273   2.031   1_656  S
O265        C275   1.280       .  A
O266       Cu273   2.053       .  S
O266        C276   1.283       .  A
O267       Cu273   2.043   1_655  S
O267        C277   1.280       .  A
O268       Cu273   2.022   1_556  S
O268        C278   1.278       .  A
O269       Cu274   2.032   1_556  S
O269        C278   1.280       .  A
O270       Cu274   2.047   1_655  S
O270        C277   1.282       .  A
O271       Cu274   2.040       .  S
O271        C276   1.280       .  A
O272       Cu274   2.024   1_656  S
O272        C275   1.278       .  A
Cu273      Cu274   2.369       .  S
C275        C703   1.486       .  S
C276        C655   1.504       .  S
C277        C668   1.500       .  S
C278        C687   1.485       .  S
N279        N280   1.322       .  A
N279        C283   1.346       .  A
N279       Cu287   2.076       .  S
N280        C281   1.345       .  A
N280       Cu286   2.069       .  S
C281        C282   1.379       .  A
C281        H284   1.082       .  S
C282        C283   1.381       .  A
C283        H285   1.082       .  S
Cu286       N289   2.069       .  S
Cu287       N297   2.076       .  S
Cu288       N290   2.075       .  S
Cu288       N296   2.075       .  S
N289        N290   1.323       .  A
N289        C293   1.345       .  A
N290        C291   1.345       .  A
C291        C292   1.381       .  A
C291        H294   1.082       .  S
C292        C293   1.380       .  A
C293        H295   1.082       .  S
N296        N297   1.320       .  A
N296        C300   1.345       .  A
N297        C298   1.343       .  A
C298        C299   1.390       .  A
C298        H301   1.082       .  S
C299        C300   1.390       .  A
C299        C639   1.496       .  S
C300        H302   1.076       .  S
N303        N304   1.323       .  A
N303        C307   1.345       .  A
N303       Cu311   2.071       .  S
N304        C305   1.345       .  A
N304       Cu310   2.074       .  S
C305        C306   1.380       .  A
C305        H308   1.082       .  S
C306        C307   1.379       .  A
C307        H309   1.082       .  S
Cu310       N313   2.073       .  S
Cu311       N321   2.070       .  S
Cu312       N314   2.069       .  S
Cu312       N320   2.069       .  S
N313        N314   1.323       .  A
N313        C317   1.345       .  A
N314        C315   1.345       .  A
C315        C316   1.379       .  A
C315        H318   1.082       .  S
C316        C317   1.380       .  A
C317        H319   1.082       .  S
N320        N321   1.322       .  A
N320        C324   1.343       .  A
N321        C322   1.345       .  A
C322        C323   1.381       .  A
C322        H325   1.082       .  S
C323        C324   1.380       .  A
C323        C623   1.471       .  S
C324        H326   1.082       .  S
N327        N328   1.323       .  A
N327        C331   1.345       .  A
N327       Cu335   2.067       .  S
N328        C329   1.344       .  A
N328       Cu334   2.070       .  S
C329        C330   1.379       .  A
C329        H332   1.082       .  S
C330        C331   1.379       .  A
C331        H333   1.082       .  S
Cu334       N337   2.071       .  S
Cu335       N345   2.067       .  S
Cu336       N338   2.070       .  S
Cu336       N344   2.070       .  S
N337        N338   1.323       .  A
N337        C341   1.345       .  A
N338        C339   1.345       .  A
C339        C340   1.379       .  A
C339        H342   1.082       .  S
C340        C341   1.379       .  A
C341        H343   1.082       .  S
N344        N345   1.323       .  A
N344        C348   1.345       .  A
N345        C346   1.344       .  A
C346        C347   1.379       .  A
C346        H349   1.082       .  S
C347        C348   1.380       .  A
C347        C607   1.469       .  S
C348        H350   1.082       .  S
N351        N352   1.323       .  A
N351        C355   1.344       .  A
N351       Cu359   2.069       .  S
N352        C353   1.345       .  A
N352       Cu358   2.074       .  S
C353        C354   1.380       .  A
C353        H356   1.082       .  S
C354        C355   1.379       .  A
C355        H357   1.082       .  S
Cu358       N361   2.074       .  S
Cu359       N369   2.069       .  S
Cu360       N362   2.074       .  S
Cu360       N368   2.074       .  S
N361        N362   1.323       .  A
N361        C365   1.345       .  A
N362        C363   1.345       .  A
C363        C364   1.380       .  A
C363        H366   1.082       .  S
C364        C365   1.380       .  A
C364        C392   1.463       .  S
C365        H367   1.082       .  S
N368        N369   1.321       .  A
N368        C372   1.344       .  A
N369        C370   1.345       .  A
C370        C371   1.384       .  A
C370        H373   1.081       .  S
C371        C372   1.385       .  A
C371        C588   1.480       .  S
C372        H374   1.082       .  S
O375       Cu383   2.004   1_566  S
O375        C385   1.275       .  A
O376       Cu383   2.005       .  S
O376        C386   1.275       .  A
O377       Cu383   2.027   1_556  S
O377        C387   1.279       .  A
O378       Cu383   2.012   1_565  S
O378        C388   1.277       .  A
O379       Cu384   2.001   1_565  S
O379        C388   1.275       .  A
O380       Cu384   2.000   1_556  S
O380        C387   1.275       .  A
O381       Cu384   2.020       .  S
O381        C386   1.281       .  A
O382       Cu384   2.016   1_566  S
O382        C385   1.281       .  A
Cu383      Cu384   2.368       .  S
C385        C636   1.498       .  S
C386        C591   1.486       .  S
C387        C620   1.475       .  S
C388        C604   1.468       .  S
N389        N390   1.323       .  A
N389        C393   1.345       .  A
N389       Cu397   2.074       .  S
N390        C391   1.345       .  A
N390       Cu396   2.074       .  S
C391        C392   1.380       .  A
C391        H394   1.082       .  S
C392        C393   1.380       .  A
C393        H395   1.082       .  S
Cu396       N399   2.074       .  S
Cu397       N407   2.074       .  S
Cu398       N400   2.075       .  S
Cu398       N406   2.075       .  S
N399        N400   1.323       .  A
N399        C403   1.345       .  A
N400        C401   1.346       .  A
C401        C402   1.380       .  A
C401        H404   1.082       .  S
C402        C403   1.380       .  A
C403        H405   1.082       .  S
N406        N407   1.323       .  A
N406        C410   1.345       .  A
N407        C408   1.346       .  A
C408        C409   1.380       .  A
C408        H411   1.082       .  S
C409        C410   1.380       .  A
C409        C488   1.464       .  S
C410        H412   1.082       .  S
N413        N414   1.323       .  A
N413        C417   1.345       .  A
N413       Cu421   2.070       .  S
N414        C415   1.345       .  A
N414       Cu420   2.071       .  S
C415        C416   1.380       .  A
C415        H418   1.082       .  S
C416        C417   1.380       .  A
C417        H419   1.082       .  S
Cu420       N423   2.071       .  S
Cu421       N431   2.070       .  S
Cu422       N424   2.078       .  S
Cu422       N430   2.078       .  S
N423        N424   1.323       .  A
N423        C427   1.345       .  A
N424        C425   1.346       .  A
C425        C426   1.381       .  A
C425        H428   1.082       .  S
C426        C427   1.379       .  A
C427        H429   1.082       .  S
N430        N431   1.323       .  A
N430        C434   1.346       .  A
N431        C432   1.345       .  A
C432        C433   1.380       .  A
C432        H435   1.082       .  S
C433        C434   1.382       .  A
C433        C572   1.472       .  S
C434        H436   1.082       .  S
N437        N438   1.322       .  A
N437        C441   1.343       .  A
N437       Cu445   2.058       .  S
N438        C439   1.345       .  A
N438       Cu444   2.075       .  S
C439        C440   1.381       .  A
C439        H442   1.082       .  S
C440        C441   1.377       .  A
C441        H443   1.082       .  S
Cu444       N447   2.076       .  S
Cu445       N455   2.058       .  S
Cu446       N448   2.075       .  S
Cu446       N454   2.075       .  S
N447        N448   1.324       .  A
N447        C451   1.346       .  A
N448        C449   1.345       .  A
C449        C450   1.379       .  A
C449        H452   1.082       .  S
C450        C451   1.380       .  A
C451        H453   1.082       .  S
N454        N455   1.322       .  A
N454        C458   1.345       .  A
N455        C456   1.343       .  A
C456        C457   1.378       .  A
C456        H459   1.082       .  S
C457        C458   1.383       .  A
C457        C559   1.470       .  S
C458        H460   1.082       .  S
N461        N462   1.323       .  A
N461        C465   1.346       .  A
N461       Cu469   2.075       .  S
N462        C463   1.345       .  A
N462       Cu468   2.072       .  S
C463        C464   1.379       .  A
C463        H466   1.082       .  S
C464        C465   1.381       .  A
C465        H467   1.082       .  S
Cu468       N471   2.073       .  S
Cu469       N479   2.076       .  S
Cu470       N472   2.072       .  S
Cu470       N478   2.072       .  S
N471        N472   1.323       .  A
N471        C475   1.345       .  A
N472        C473   1.345       .  A
C473        C474   1.380       .  A
C473        H476   1.082       .  S
C474        C475   1.380       .  A
C475        H477   1.082       .  S
N478        N479   1.323       .  A
N478        C482   1.345       .  A
N479        C480   1.345       .  A
C480        C481   1.381       .  A
C480        H483   1.082       .  S
C481        C482   1.380       .  A
C481        C540   1.473       .  S
C482        H484   1.082       .  S
N485        N486   1.324       .  A
N485        C489   1.345       .  A
N485       Cu493   2.075       .  S
N486        C487   1.346       .  A
N486       Cu492   2.079       .  S
C487        C488   1.381       .  A
C487        H490   1.082       .  S
C488        C489   1.380       .  A
C489        H491   1.082       .  S
Cu492       N495   2.079       .  S
Cu493       N503   2.075       .  S
Cu494       N496   2.069       .  S
Cu494       N502   2.069       .  S
N495        N496   1.323       .  A
N495        C499   1.347       .  A
N496        C497   1.344       .  A
C497        C498   1.379       .  A
C497        H500   1.082       .  S
C498        C499   1.382       .  A
C499        H501   1.082       .  S
N502        N503   1.321       .  A
N502        C506   1.345       .  A
N503        C504   1.345       .  A
C504        C505   1.385       .  A
C504        H507   1.082       .  S
C505        C506   1.383       .  A
C505        C524   1.478       .  S
C506        H508   1.082       .  S
O509       Cu517   2.042       .  S
O509        C519   1.281       .  A
O510       Cu517   2.023   1_665  S
O510        C520   1.278       .  A
O511       Cu517   2.040   1_565  S
O511        C521   1.280       .  A
O512       Cu517   2.027   1_655  S
O512        C522   1.279       .  A
O513       Cu518   2.020   1_655  S
O513        C522   1.278       .  A
O514       Cu518   2.039   1_565  S
O514        C521   1.281       .  A
O515       Cu518   2.031   1_665  S
O515        C520   1.280       .  A
O516       Cu518   2.043       .  S
O516        C519   1.281       .  A
Cu517      Cu518   2.370       .  S
C519        C527   1.501       .  S
C520        C575   1.485       .  S
C521        C556   1.496       .  S
C522        C543   1.482       .  S
C523        C524   1.396       .  A
C523        C528   1.406       .  A
C523        H530   1.083       .  S
C524        C525   1.411       .  A
C525        C526   1.410       .  A
C525        C532   1.518       .  S
C526        C527   1.405       .  A
C526        H531   1.074       .  S
C527        C528   1.421       .  A
C528        C529   1.501       .  S
C529        F533   1.385       .  S
C529        F534   1.377       .  S
C529        F535   1.381       .  S
C532        F536   1.381       .  S
C532        F537   1.384       .  S
C532        F538   1.382       .  S
C539        C540   1.397       .  A
C539        C544   1.405       .  A
C539        H546   1.083       .  S
C540        C541   1.412       .  A
C541        C542   1.411       .  A
C541        C548   1.515       .  S
C542        C543   1.404       .  A
C542        H547   1.083       .  S
C543        C544   1.414       .  A
C544        C545   1.506       .  S
C545        F549   1.384       .  S
C545        F550   1.381       .  S
C545        F551   1.383       .  S
C548        F552   1.383       .  S
C548        F553   1.383       .  S
C548        F554   1.379       .  S
C555        C556   1.403       .  A
C555        C560   1.408       .  A
C555        H562   1.060       .  S
C556        C557   1.415       .  A
C557        C558   1.405       .  A
C557        C564   1.496       .  S
C558        C559   1.396       .  A
C558        H563   1.083       .  S
C559        C560   1.408       .  A
C560        C561   1.517       .  S
C561        F565   1.382       .  S
C561        F566   1.382       .  S
C561        F567   1.384       .  S
C564        F568   1.378       .  S
C564        F569   1.383       .  S
C564        F570   1.385       .  S
C571        C572   1.394       .  A
C571        C576   1.403       .  A
C571        H578   1.084       .  S
C572        C573   1.412       .  A
C573        C574   1.413       .  A
C573        C580   1.514       .  S
C574        C575   1.405       .  A
C574        H579   1.083       .  S
C575        C576   1.414       .  A
C576        C577   1.501       .  S
C577        F581   1.384       .  S
C577        F582   1.383       .  S
C577        F583   1.384       .  S
C580        F584   1.383       .  S
C580        F585   1.383       .  S
C580        F586   1.379       .  S
C587        C588   1.399       .  A
C587        C592   1.404       .  A
C587        H594   1.085       .  S
C588        C589   1.415       .  A
C589        C590   1.408       .  A
C589        C596   1.519       .  S
C590        C591   1.407       .  A
C590        H595   1.084       .  S
C591        C592   1.427       .  A
C592        C593   1.519       .  S
C593        F597   1.384       .  S
C593        F598   1.370       .  S
C593        F599   1.383       .  S
C596        F600   1.384       .  S
C596        F601   1.380       .  S
C596        F602   1.385       .  S
C603        C604   1.401       .  A
C603        C608   1.406       .  A
C603        H610   1.084       .  S
C604        C605   1.413       .  A
C605        C606   1.405       .  A
C605        C612   1.515       .  S
C606        C607   1.400       .  A
C606        H611   1.083       .  S
C607        C608   1.413       .  A
C608        C609   1.517       .  S
C609        F613   1.385       .  S
C609        F614   1.383       .  S
C609        F615   1.383       .  S
C612        F616   1.383       .  S
C612        F617   1.380       .  S
C612        F618   1.384       .  S
C619        C620   1.403       .  A
C619        C624   1.407       .  A
C619        H626   1.084       .  S
C620        C621   1.414       .  A
C621        C622   1.404       .  A
C621        C628   1.510       .  S
C622        C623   1.399       .  A
C622        H627   1.084       .  S
C623        C624   1.413       .  A
C624        C625   1.516       .  S
C625        F629   1.384       .  S
C625        F630   1.382       .  S
C625        F631   1.383       .  S
C628        F632   1.384       .  S
C628        F633   1.379       .  S
C628        F634   1.385       .  S
C635        C636   1.408       .  A
C635        C640   1.408       .  A
C635        H642   1.082       .  S
C636        C637   1.426       .  A
C637        C638   1.408       .  A
C637        C644   1.523       .  S
C638        C639   1.405       .  A
C638        H643   1.081       .  S
C639        C640   1.422       .  A
C640        C641   1.520       .  S
C641        F645   1.385       .  S
C641        F646   1.383       .  S
C641        F647   1.381       .  S
C644        F648   1.383       .  S
C644        F649   1.381       .  S
C644        F650   1.385       .  S
C651        C652   1.394       .  A
C651        C656   1.404       .  A
C651        H658   1.083       .  S
C652        C653   1.410       .  A
C653        C654   1.412       .  A
C653        C660   1.517       .  S
C654        C655   1.406       .  A
C654        H659   1.073       .  S
C655        C656   1.422       .  A
C656        C657   1.498       .  S
C657        F661   1.385       .  S
C657        F662   1.372       .  S
C657        F663   1.381       .  S
C660        F664   1.381       .  S
C660        F665   1.385       .  S
C660        F666   1.383       .  S
C667        C668   1.403       .  A
C667        C672   1.409       .  A
C667        H674   1.066       .  S
C668        C669   1.414       .  A
C669        C670   1.404       .  A
C669        C676   1.491       .  S
C670        C671   1.394       .  A
C670        H675   1.084       .  S
C671        C672   1.409       .  A
C672        C673   1.516       .  S
C673        F677   1.382       .  S
C673        F678   1.383       .  S
C673        F679   1.383       .  S
C676        F680   1.377       .  S
C676        F681   1.384       .  S
C676        F682   1.385       .  S
C683        C684   1.399       .  A
C683        C688   1.406       .  A
C683        H690   1.083       .  S
C684        C685   1.414       .  A
C685        C686   1.411       .  A
C685        C692   1.516       .  S
C686        C687   1.405       .  A
C686        H691   1.083       .  S
C687        C688   1.415       .  A
C688        C689   1.507       .  S
C689        F693   1.385       .  S
C689        F694   1.380       .  S
C689        F695   1.383       .  S
C692        F696   1.382       .  S
C692        F697   1.383       .  S
C692        F698   1.382       .  S
C699        C700   1.395       .  A
C699        C704   1.403       .  A
C699        H706   1.084       .  S
C700        C701   1.413       .  A
C701        C702   1.413       .  A
C701        C708   1.515       .  S
C702        C703   1.405       .  A
C702        H707   1.083       .  S
C703        C704   1.414       .  A
C704        C705   1.501       .  S
C705        F709   1.384       .  S
C705        F710   1.384       .  S
C705        F711   1.383       .  S
C708        F712   1.382       .  S
C708        F713   1.384       .  S
C708        F714   1.382       .  S
