geometry optimzed in LAMMPS
_audit_creation_date              2020-12-01 
_audit_creation_method            'lammps2cif' 
_symmetry_space_group_name_H-M    'P1' 
_symmetry_Int_Tables_number       1 
_symmetry_cell_setting            triclinic 
loop_ 
_symmetry_equiv_pos_as_xyz 
  x,y,z 
_cell_length_a                    58.56188883 
_cell_length_b                    58.64893786628223 
_cell_length_c                    95.46190001355525 
_cell_angle_alpha                 90.02033258653144 
_cell_angle_beta                  90.10460109098943 
_cell_angle_gamma                 122.0198617580725 
loop_ 
_atom_site_label 
_atom_site_type_symbol 
_atom_site_fract_x 
_atom_site_fract_y 
_atom_site_fract_z 
_atom_site_charge 
N1          N  0.66159275  0.83342000  0.27290810    -0.27400
N2          N  0.68493132  0.84727959  0.27953726    -0.35200
C3          C  0.68023648  0.84832138  0.29326407     0.01000
C4          C  0.65259901  0.83430433  0.29535011     0.07000
C5          C  0.64149664  0.82545882  0.28217553    -0.06100
H6          H  0.69578522  0.85799173  0.30116974     0.07700
H7          H  0.62030972  0.81295371  0.27962166     0.08900
Cu8        Cu  0.72181531  0.86162723  0.26965881     0.44200
Cu9        Cu  0.65779991  0.82280997  0.25194829     0.42000
Cu10       Cu  0.71760172  0.83427239  0.23462820     0.43900
N11         N  0.75509389  0.86914902  0.25792553    -0.34800
N12         N  0.75336898  0.85777139  0.24566434    -0.29000
C13         C  0.77830863  0.86550962  0.24130477    -0.05100
C14         C  0.79658466  0.88296380  0.25113866     0.07100
C15         C  0.78125204  0.88497401  0.26149217     0.00900
H16         H  0.78284489  0.85963621  0.23145714     0.08500
H17         H  0.78853916  0.89678685  0.27100078     0.07600
N18         N  0.67982891  0.81476911  0.22516404    -0.36200
N19         N  0.65803673  0.81086682  0.23155005    -0.28400
C20         C  0.63703888  0.79862812  0.22267072    -0.03600
C21         C  0.64588806  0.79442641  0.21005008     0.05000
C22         C  0.67324641  0.80517546  0.21199168     0.03100
H23         H  0.61681503  0.79340440  0.22518775     0.08200
H24         H  0.68751089  0.80672294  0.20428086     0.07000
N25         N  0.94491322  0.10302734  0.27552320    -0.27400
N26         N  0.92927528  0.07975522  0.28190984    -0.35200
C27         C  0.92820224  0.08430033  0.29564056     0.01000
C28         C  0.94421994  0.11167570  0.29800107     0.07000
C29         C  0.95431888  0.12294955  0.28502082    -0.06100
H30         H  0.91718499  0.06878203  0.30338381     0.07700
H31         H  0.96762079  0.14407714  0.28265404     0.08900
Cu32       Cu  0.91169017  0.04273919  0.27193394     0.44200
Cu33       Cu  0.95341218  0.10705586  0.25427007     0.42000
Cu34       Cu  0.93318195  0.04554857  0.23604219     0.43900
N35         N  0.90090494  0.00888973  0.25999349    -0.34800
N36         N  0.91025094  0.01006897  0.24723351    -0.29000
C37         C  0.90065245  0.98491876  0.24258045    -0.05100
C38         C  0.88417286  0.96712828  0.25279816     0.07100
C39         C  0.88460186  0.98291857  0.26366680     0.00900
H40         H  0.90452145  0.97994345  0.23229792     0.08500
H41         H  0.87405460  0.97607983  0.27354122     0.07600
N42         N  0.95094334  0.08268622  0.22616127    -0.36200
N43         N  0.95809876  0.10525877  0.23285189    -0.28400
C44         C  0.96723291  0.12540008  0.22350598    -0.03600
C45         C  0.96545428  0.11495290  0.21024279     0.05000
C46         C  0.95535728  0.08786856  0.21236700     0.03100
H47         H  0.97436169  0.14605780  0.22617317     0.08200
H48         H  0.95072344  0.07285936  0.20441360     0.07000
N49         N  0.94466799  0.81468216  0.26541973    -0.27400
N50         N  0.93683593  0.82902059  0.27218173    -0.35200
C51         C  0.94084308  0.82807656  0.28599343     0.01000
C52         C  0.95207908  0.81265566  0.28802956     0.07000
C53         C  0.95400035  0.80431030  0.27473383    -0.06100
H54         H  0.93577073  0.83774768  0.29398110     0.07700
H55         H  0.96096983  0.79108680  0.27204324     0.08900
Cu56       Cu  0.92009333  0.84813250  0.26214224     0.44200
Cu57       Cu  0.94104921  0.80928595  0.24388057     0.42000
Cu58       Cu  0.90799094  0.83759580  0.22445139     0.43900
N59         N  0.90111333  0.86307532  0.25034163    -0.34800
N60         N  0.89552422  0.85839771  0.23681367    -0.29000
C61         C  0.88173958  0.86981436  0.23277995    -0.05100
C62         C  0.87898215  0.88249554  0.24428898     0.07100
C63         C  0.89151486  0.87790282  0.25519142     0.00900
H64         H  0.87459716  0.86921723  0.22224559     0.08500
H65         H  0.89313537  0.88445762  0.26594277     0.07600
N66         N  0.92438790  0.81722613  0.21511419    -0.36200
N67         N  0.93592562  0.80672106  0.22231037    -0.28400
C68         C  0.94440975  0.79503155  0.21339717    -0.03600
C69         C  0.93797817  0.79814572  0.19984633     0.05000
C70         C  0.92553918  0.81266242  0.20136488     0.03100
H71         H  0.95470028  0.78506940  0.21659073     0.08200
H72         H  0.91843291  0.82000411  0.19311051     0.07000
C73         C  0.86556259  0.89760717  0.24515334     0.80100
N74         N  0.83827978  0.88423976  0.24601999    -0.78200
C75         C  0.82608327  0.89730678  0.25035526     0.82600
N76         N  0.84125110  0.92391003  0.25358357    -0.78100
C77         C  0.86836546  0.93771413  0.25176800     0.82700
N78         N  0.88047953  0.92444479  0.24774618    -0.79800
N79         N  0.71378944  0.13367628  0.92470626    -0.27400
N80         N  0.69771927  0.12629610  0.93570112    -0.35200
C81         C  0.70796571  0.14667275  0.94496899     0.01000
C82         C  0.73157502  0.16792525  0.93950657     0.07000
C83         C  0.73454132  0.15910576  0.92659282    -0.06100
H84         H  0.69845123  0.14638283  0.95472806     0.07700
H85         H  0.75050554  0.17037878  0.91909753     0.08900
Cu86       Cu  0.66142888  0.08979331  0.93691709     0.44200
Cu87       Cu  0.70642389  0.10857912  0.90773687     0.42000
Cu88       Cu  0.64309672  0.04375605  0.90751052     0.43900
N89         N  0.62457419  0.05400930  0.93497128    -0.34800
N90         N  0.61771503  0.03715869  0.92431716    -0.29000
C91         C  0.59219471  0.01648086  0.92615811    -0.05100
C92         C  0.58262473  0.02053436  0.93858330     0.07100
C93         C  0.60364052  0.04461745  0.94380193     0.00900
H94         H  0.58121624  0.00010590  0.91881543     0.08500
H95         H  0.60363637  0.05473181  0.95328256     0.07600
N96         N  0.67279356  0.05582734  0.89231624    -0.36200
N97         N  0.69575845  0.07940361  0.89247538    -0.28400
C98         C  0.71077180  0.08084123  0.88147980    -0.03600
C99         C  0.69650586  0.05718879  0.87387379     0.05000
C100        C  0.67261970  0.04168136  0.88115805     0.03100
H101        H  0.73085048  0.09771107  0.87936302     0.08200
H102        H  0.65630161  0.02157133  0.87853805     0.07000
N103        N  0.01136056  0.29010077  0.07244527    -0.27400
N104        N  0.02880913  0.30186279  0.06211306    -0.35200
C105        C  0.02103522  0.31538066  0.05403822     0.01000
C106        C  0.99770774  0.31230242  0.05960562     0.07000
C107        C  0.99199392  0.29581866  0.07116807    -0.06100
H108        H  0.03161627  0.32660151  0.04476989     0.07700
H109        H  0.97524047  0.28891099  0.07829321     0.08900
Cu110      Cu  0.06301848  0.29986249  0.05963533     0.44200
Cu111      Cu  0.01539434  0.26766140  0.08812193     0.42000
Cu112      Cu  0.07560486  0.26422903  0.08639008     0.43900
N113        N  0.09668375  0.29653656  0.05979649    -0.34800
N114        N  0.10138731  0.28368255  0.06963977    -0.29000
C115        C  0.12511694  0.28600702  0.06703370    -0.05100
C116        C  0.13581449  0.30078624  0.05484677     0.07100
C117        C  0.11727601  0.30731066  0.05065430     0.00900
H118        H  0.13423154  0.27816073  0.07376827     0.08500
H119        H  0.11877815  0.31927785  0.04167430     0.07600
N120        N  0.04687651  0.24641198  0.10211680    -0.36200
N121        N  0.02492989  0.24753132  0.10276462    -0.28400
C122        C  0.01072836  0.23398844  0.11418528    -0.03600
C123        C  0.02451300  0.22412155  0.12116106     0.05000
C124        C  0.04719506  0.23217344  0.11308530     0.03100
H125        H  0.99183111  0.23166439  0.11725716     0.08200
H126        H  0.06267066  0.22773135  0.11492295     0.07000
N127        N  0.63172457  0.51680147  0.92798061    -0.27400
N128        N  0.63582328  0.50116353  0.93618074    -0.35200
C129        C  0.61412081  0.48649365  0.94430714     0.01000
C130        C  0.59531412  0.49320304  0.94119783     0.07000
C131        C  0.60711126  0.51238882  0.93068047    -0.06100
H132        H  0.61214895  0.47189500  0.95192166     0.07700
H133        H  0.59825822  0.52191741  0.92512014     0.08900
Cu134      Cu  0.67038737  0.49986184  0.93589552     0.44200
Cu135      Cu  0.66013547  0.54283432  0.91344413     0.42000
Cu136      Cu  0.72402293  0.54456213  0.91284607     0.43900
N137        N  0.70652905  0.50165342  0.93474249    -0.34800
N138        N  0.72676070  0.51852823  0.92660663    -0.29000
C139        C  0.74736495  0.51478901  0.92856142    -0.05100
C140        C  0.73938067  0.49424839  0.93820146     0.07100
C141        C  0.71348516  0.48657037  0.94194755     0.00900
H142        H  0.76647119  0.52576555  0.92316385     0.08500
H143        H  0.70064526  0.47119350  0.94941758     0.07600
N144        N  0.71482267  0.56683158  0.89957388    -0.36200
N145        N  0.69202522  0.56647159  0.89990155    -0.28400
C146        C  0.69279049  0.58308429  0.88992501    -0.03600
C147        C  0.71720007  0.59448017  0.88300236     0.05000
C148        C  0.73050454  0.58349151  0.88929857     0.03100
H149        H  0.67652271  0.58619517  0.88767949     0.08200
H150        H  0.75017887  0.58733070  0.88660040     0.07000
O151        O  0.89841642  0.44063126  0.00117043    -0.73000
O152        O  0.85872826  0.37076197  0.98009774    -0.74000
O153        O  0.85832589  0.41895155  0.98008317    -0.62600
O154        O  0.89907869  0.39224807  0.00125601    -0.71000
O155        O  0.86824166  0.37656108  0.01803014    -0.70600
O156        O  0.82614645  0.40115972  0.99611780    -0.61800
O157        O  0.82794850  0.35353213  0.99675551    -0.74400
O158        O  0.86606943  0.42398049  0.01717094    -0.73100
Cu159      Cu  0.87977038  0.40622253  0.99010769     1.04600
Cu160      Cu  0.84601871  0.38818264  0.00759671     1.04300
C161        C  0.88798236  0.44359844  0.01223097     0.93200
C162        C  0.83707946  0.35090534  0.98510327     0.92300
C163        C  0.83577006  0.41425475  0.98471433     0.84500
C164        C  0.89007338  0.38009237  0.01294044     0.90700
O165        O  0.37242684  0.43091488  0.99873278    -0.73000
O166        O  0.34374071  0.35954489  0.97971823    -0.74000
O167        O  0.32231512  0.38091750  0.99841239    -0.62600
O168        O  0.39387693  0.40941302  0.97995535    -0.71000
O169        O  0.40756101  0.39577758  0.99797733    -0.70600
O170        O  0.33544997  0.36684524  0.01644444    -0.61800
O171        O  0.35753617  0.34574857  0.99763713    -0.74400
O172        O  0.38598197  0.41710087  0.01674008    -0.73100
Cu173      Cu  0.35764341  0.39569345  0.98859606     1.04600
Cu174      Cu  0.37208645  0.38088277  0.00784736     1.04300
C175        C  0.38404547  0.43542100  0.01065384     0.93200
C176        C  0.34617218  0.34140953  0.98565268     0.92300
C177        C  0.31730575  0.36900847  0.01022660     0.84500
C178        C  0.41198216  0.40698380  0.98596718     0.90700
N179        N  0.99669982  0.66179080  0.07120875    -0.27400
N180        N  0.01668761  0.66736662  0.06265968    -0.35200
C181        C  0.00966442  0.64583418  0.05462700     0.01000
C182        C  0.98405258  0.62548601  0.05840367     0.07000
C183        C  0.97627869  0.63635192  0.06888352    -0.06100
H184        H  0.02249713  0.64487789  0.04681445     0.07700
H185        H  0.95725009  0.62658063  0.07437339     0.08900
Cu186      Cu  0.05302365  0.70336218  0.06302815     0.44200
Cu187      Cu  0.99948082  0.68972167  0.08553512     0.42000
Cu188      Cu  0.06452965  0.75478353  0.08806974     0.43900
N189        N  0.08954737  0.73858025  0.06579538    -0.34800
N190        N  0.09442219  0.75765811  0.07488814    -0.29000
C191        C  0.12053550  0.77760636  0.07376906    -0.05100
C192        C  0.13247192  0.77042669  0.06354378     0.07100
C193        C  0.11209863  0.74566733  0.05872695     0.00900
H194        H  0.12992380  0.79612269  0.07972186     0.08500
H195        H  0.11351563  0.73360348  0.05060353     0.07600
N196        N  0.03007961  0.74454995  0.09965355    -0.36200
N197        N  0.00700587  0.72110508  0.09871604    -0.28400
C198        C  0.98931784  0.72071167  0.10780958    -0.03600
C199        C  0.00154992  0.74509599  0.11475795     0.05000
C200        C  0.02748345  0.75967497  0.10939227     0.03100
H201        H  0.96901737  0.70374904  0.10933061     0.08200
H202        H  0.04353142  0.77950955  0.11260880     0.07000
N203        N  0.23770518  0.02701137  0.92878941    -0.27400
N204        N  0.25039071  0.04486998  0.93886180    -0.35200
C205        C  0.26402327  0.03716909  0.94684529     0.01000
C206        C  0.25995607  0.01330549  0.94156865     0.07000
C207        C  0.24289838  0.00730698  0.93015924    -0.06100
H208        H  0.27608619  0.04820691  0.95585746     0.07700
H209        H  0.23450613  0.98974432  0.92348888     0.08900
Cu210      Cu  0.24859191  0.07886396  0.94149850     0.44200
Cu211      Cu  0.21409719  0.03103219  0.91383481     0.42000
Cu212      Cu  0.20880648  0.09058816  0.91721762     0.43900
N213        N  0.24598372  0.11263479  0.94212771    -0.34800
N214        N  0.23177709  0.11735736  0.93314253    -0.29000
C215        C  0.23623502  0.14198648  0.93571548    -0.05100
C216        C  0.25380341  0.15306162  0.94698006     0.07100
C217        C  0.25964746  0.13391481  0.95069565     0.00900
H218        H  0.22791516  0.15143988  0.92960690     0.08500
H219        H  0.27384890  0.13583856  0.95858879     0.07600
N220        N  0.18990236  0.06148089  0.90164141    -0.36200
N221        N  0.19219899  0.04032376  0.90030131    -0.28400
C222        C  0.17799711  0.02606358  0.88901769    -0.03600
C223        C  0.16626262  0.03882356  0.88285498     0.05000
C224        C  0.17403048  0.06105778  0.89129248     0.03100
H225        H  0.17636097  0.00769350  0.88553758     0.08200
H226        H  0.16825862  0.07568480  0.89017425     0.07000
N227        N  0.46849033  0.64970847  0.07157923    -0.27400
N228        N  0.45308492  0.65310324  0.06277946    -0.35200
C229        C  0.44192795  0.63258182  0.05356898    -0.09200
C230        C  0.45093395  0.61552219  0.05661705     0.07000
C231        C  0.46749862  0.62690836  0.06821206    -0.06100
H232        H  0.42791027  0.63004390  0.04541512     0.07700
H233        H  0.47810181  0.61919244  0.07378641     0.08900
Cu234      Cu  0.44787470  0.68546687  0.06384870     0.44200
Cu235      Cu  0.48993813  0.67625011  0.08783008     0.42000
Cu236      Cu  0.48275389  0.73390915  0.09182350     0.43900
N237        N  0.44597282  0.71952909  0.06682796    -0.34800
N238        N  0.45826585  0.73701965  0.07712268    -0.29000
C239        C  0.45313951  0.75677967  0.07589072    -0.05100
C240        C  0.43686696  0.75143593  0.06425401     0.07100
C241        C  0.43293849  0.72780532  0.05872610     0.00900
H242        H  0.46135278  0.77416744  0.08268617     0.08500
H243        H  0.42164663  0.71751925  0.04938628     0.07600
N244        N  0.50637234  0.72616183  0.10486621    -0.36200
N245        N  0.50893090  0.70518832  0.10343127    -0.28400
C246        C  0.52509679  0.70579507  0.11366063    -0.03600
C247        C  0.53291394  0.72807981  0.12203619     0.05000
C248        C  0.52089948  0.74066726  0.11602621     0.03100
H249        H  0.53076097  0.69109499  0.11487206     0.08200
H250        H  0.52224101  0.75881927  0.11965796     0.07000
O251        O  0.33363112  0.88832866  0.02110192    -0.73000
O252        O  0.40209297  0.92611264  0.99913731    -0.74000
O253        O  0.35397284  0.92697846  0.99925271    -0.62600
O254        O  0.38130333  0.88708283  0.02083641    -0.71000
O255        O  0.36353995  0.85480991  0.00487869    -0.70600
O256        O  0.33582521  0.89425044  0.98348203    -0.61800
O257        O  0.38421738  0.89387212  0.98305977    -0.74400
O258        O  0.31562457  0.85549517  0.00535259    -0.73100
Cu259      Cu  0.36840080  0.90828917  0.01060517     1.04600
Cu260      Cu  0.34919733  0.87349810  0.99362356     1.04300
C261        C  0.31392517  0.86575020  0.01682460     0.93200
C262        C  0.40415565  0.91596072  0.98773507     0.92300
C263        C  0.34049621  0.91688098  0.98796214     0.84500
C264        C  0.37653787  0.86443745  0.01633627     0.90700
N265        N  0.04472635  0.98585066  0.77393722    -0.27400
N266        N  0.02063031  0.97046045  0.77956209    -0.35200
C267        C  0.02357077  0.96681170  0.79323141     0.01000
C268        C  0.05086322  0.98013817  0.79621600     0.07000
C269        C  0.06361781  0.99208933  0.78376056    -0.06100
H270        H  0.00711220  0.95560412  0.80048542     0.07700
H271        H  0.08507119  0.00523257  0.78209197     0.08900
Cu272      Cu  0.98529842  0.95646354  0.76820897     0.44200
Cu273      Cu  0.05092480  0.99973039  0.75352800     0.42000
Cu274      Cu  0.99275975  0.98742269  0.73382851     0.43900
N275        N  0.95334798  0.94836494  0.75519138    -0.34800
N276        N  0.95597022  0.96094178  0.74323006    -0.29000
C277        C  0.93132141  0.95281869  0.73817283    -0.05100
C278        C  0.91239167  0.93387218  0.74723609     0.07100
C279        C  0.92699161  0.93141236  0.75785442     0.00900
H280        H  0.92748541  0.95996713  0.72854279     0.08500
H281        H  0.91905589  0.91901635  0.76712047     0.07600
N282        N  0.03171087  0.00858492  0.72593102    -0.36200
N283        N  0.05284280  0.01270365  0.73316544    -0.28400
C284        C  0.07471882  0.02489429  0.72492717    -0.03600
C285        C  0.06712539  0.02879971  0.71185144     0.05000
C286        C  0.03963690  0.01806945  0.71285019     0.03100
H287        H  0.09457796  0.02981662  0.72810846     0.08200
H288        H  0.02615091  0.01602266  0.70450339     0.07000
N289        N  0.77415538  0.01244616  0.76521597    -0.27400
N290        N  0.78048134  0.99667431  0.77174282    -0.35200
C291        C  0.77491490  0.99602875  0.78547175     0.01000
C292        C  0.76482617  0.01245154  0.78772386     0.07000
C293        C  0.76446608  0.02230468  0.77458472    -0.06100
H294        H  0.77740396  0.98394779  0.79314508     0.07700
H295        H  0.75745016  0.03553937  0.77199152     0.08900
Cu296      Cu  0.79603144  0.97673932  0.76134705     0.44200
Cu297      Cu  0.77792928  0.01884486  0.74376706     0.42000
Cu298      Cu  0.80791489  0.98859641  0.72373141     0.43900
N299        N  0.81325485  0.96071138  0.74893413    -0.34800
N300        N  0.81869826  0.96582746  0.73543435    -0.29000
C301        C  0.83091742  0.95316439  0.73087399    -0.05100
C302        C  0.83276737  0.93916976  0.74200480     0.07100
C303        C  0.82140343  0.94433737  0.75324527     0.00900
H304        H  0.83751275  0.95375158  0.72022820     0.08500
H305        H  0.81957487  0.93707340  0.76385347     0.07600
N306        N  0.79258179  0.01009477  0.71478736    -0.36200
N307        N  0.78181771  0.02116606  0.72215036    -0.28400
C308        C  0.77318394  0.03293365  0.71335278    -0.03600
C309        C  0.77897406  0.02935936  0.69977340     0.05000
C310        C  0.79097398  0.01448410  0.70108081     0.03100
H311        H  0.76271756  0.04267200  0.71660429     0.08200
H312        H  0.79780410  0.00716849  0.69267763     0.07000
C313        C  0.84451623  0.92250796  0.74225920     0.80100
N314        N  0.87169802  0.93439905  0.74218580    -0.78200
C315        C  0.88300596  0.92035388  0.74627833     0.82600
N316        N  0.86700437  0.89416850  0.75015273    -0.78100
C317        C  0.83980164  0.88170598  0.74922367     0.82700
N318        N  0.82864637  0.89604028  0.74550660    -0.79800
N319        N  0.74105248  0.71494943  0.73158393    -0.27400
N320        N  0.74680465  0.73740204  0.72523575    -0.35200
C321        C  0.73981469  0.73206493  0.71163469     0.01000
C322        C  0.72909895  0.70489593  0.70933720     0.07000
C323        C  0.73037603  0.69475256  0.72220455    -0.06100
H324        H  0.74354777  0.74707279  0.70385996     0.07700
H325        H  0.72468636  0.67432879  0.72448814     0.08900
Cu326      Cu  0.76718018  0.77454921  0.73515529     0.44200
Cu327      Cu  0.75016104  0.71340241  0.75243325     0.42000
Cu328      Cu  0.79383721  0.77672624  0.77023285     0.43900
N329        N  0.79335474  0.80966791  0.74598708    -0.34800
N330        N  0.80441421  0.81063738  0.75825879    -0.29000
C331        C  0.82268364  0.83652609  0.76142285    -0.05100
C332        C  0.82260565  0.85244733  0.75076515     0.07100
C333        C  0.80377997  0.83483711  0.74120517     0.00900
H334        H  0.83498298  0.84323102  0.77079274     0.08500
H335        H  0.79886466  0.83986689  0.73120264     0.07600
N336        N  0.77786233  0.73935496  0.77979971    -0.36200
N337        N  0.76190922  0.71637271  0.77320624    -0.28400
C338        C  0.75405134  0.69595267  0.78222604    -0.03600
C339        C  0.76566073  0.70640757  0.79516385     0.05000
C340        C  0.78049824  0.73407859  0.79324326     0.03100
H341        H  0.74042502  0.67497839  0.77960829     0.08200
H342        H  0.79154808  0.74930792  0.80114049     0.07000
N343        N  0.99088296  0.68731745  0.42843975    -0.27400
N344        N  0.00989169  0.69318165  0.43778298    -0.35200
C345        C  0.00129846  0.67221731  0.44650255     0.01000
C346        C  0.97555065  0.65216594  0.44249254     0.07000
C347        C  0.96973285  0.66239988  0.43089180    -0.06100
H348        H  0.01314094  0.67145162  0.45499060     0.07700
H349        H  0.95188528  0.65223799  0.42439380     0.08900
Cu350      Cu  0.04720560  0.72867364  0.43760179     0.44200
Cu351      Cu  0.99511417  0.71323059  0.41259289     0.42000
Cu352      Cu  0.05859622  0.77769527  0.41084523     0.43900
N353        N  0.08328075  0.76498535  0.43508459    -0.34800
N354        N  0.08756839  0.78303690  0.42545252    -0.29000
C355        C  0.11286890  0.80439169  0.42692194    -0.05100
C356        C  0.12495818  0.79958038  0.43808064     0.07100
C357        C  0.10565714  0.77428438  0.44287526     0.00900
H358        H  0.12178198  0.82206731  0.42033894     0.08500
H359        H  0.10755847  0.76360158  0.45158812     0.07600
N360        N  0.02622534  0.76616991  0.39732114    -0.36200
N361        N  0.00340915  0.74249553  0.39791130    -0.28400
C362        C  0.98711407  0.74066474  0.38746213    -0.03600
C363        C  0.00006767  0.76443198  0.37999709     0.05000
C364        C  0.02490458  0.78011904  0.38648058     0.03100
H365        H  0.96733762  0.72319908  0.38538992     0.08200
H366        H  0.04111649  0.79986801  0.38330100     0.07000
N367        N  0.71375049  0.15747797  0.57155718    -0.27400
N368        N  0.69323138  0.15264100  0.56356698    -0.35200
C369        C  0.70000971  0.17463979  0.55604073     0.01000
C370        C  0.72605083  0.19450939  0.55952677     0.07000
C371        C  0.73429951  0.18289296  0.56934596    -0.06100
H372        H  0.68687706  0.17608371  0.54859644     0.07700
H373        H  0.75381105  0.19203939  0.57435676     0.08900
Cu374      Cu  0.65702631  0.11645416  0.56325820     0.44200
Cu375      Cu  0.71150974  0.12857075  0.58493412     0.42000
Cu376      Cu  0.64531697  0.06429521  0.58742993     0.43900
N377        N  0.62165036  0.07951570  0.56393542    -0.34800
N378        N  0.61662587  0.06015686  0.57284602    -0.29000
C379        C  0.59149774  0.03899501  0.57038991    -0.05100
C380        C  0.58060934  0.04540027  0.55925161     0.07100
C381        C  0.60022736  0.07132769  0.55558067     0.00900
H382        H  0.58198396  0.02027922  0.57614656     0.08500
H383        H  0.59894704  0.08355132  0.54750931     0.07600
N384        N  0.67925380  0.07449128  0.59958071    -0.36200
N385        N  0.70297846  0.09716315  0.59828049    -0.28400
C386        C  0.72038134  0.09716229  0.60747152    -0.03600
C387        C  0.70714621  0.07343336  0.61494563     0.05000
C388        C  0.68103467  0.05963860  0.60979265     0.03100
H389        H  0.74100074  0.11360985  0.60886819     0.08200
H390        H  0.66455102  0.04023659  0.61322253     0.07000
N391        N  0.25163054  0.08243906  0.57732418    -0.27400
N392        N  0.26506201  0.10114131  0.56775849    -0.35200
C393        C  0.27862838  0.09368398  0.55955481     0.01000
C394        C  0.27372823  0.06914310  0.56424536     0.07000
C395        C  0.25623588  0.06246339  0.57543365    -0.06100
H396        H  0.29080956  0.10511534  0.55068964     0.07700
H397        H  0.24762087  0.04448441  0.58177598     0.08900
Cu398      Cu  0.26409390  0.13580009  0.56633271     0.44200
Cu399      Cu  0.22813717  0.08579346  0.59246782     0.42000
Cu400      Cu  0.22416103  0.14633230  0.59133209     0.43900
N401        N  0.26124988  0.16946396  0.56655434    -0.34800
N402        N  0.24653297  0.17352206  0.57549611    -0.29000
C403        C  0.24942803  0.19743955  0.57263913    -0.05100
C404        C  0.26714561  0.20902484  0.56151513     0.07100
C405        C  0.27394080  0.19056998  0.55786460     0.00900
H406        H  0.23972106  0.20593711  0.57835371     0.08500
H407        H  0.28706575  0.19226035  0.54943110     0.07600
N408        N  0.20580092  0.11635008  0.60647504    -0.36200
N409        N  0.20734056  0.09464588  0.60686541    -0.28400
C410        C  0.19381795  0.07986289  0.61811868    -0.03600
C411        C  0.18347347  0.09293290  0.62527937     0.05000
C412        C  0.19120909  0.11585007  0.61748068     0.03100
H413        H  0.19196397  0.06110535  0.62098723     0.08200
H414        H  0.18647379  0.13101565  0.61957548     0.07000
N415        N  0.46758092  0.78926943  0.42993887    -0.27400
N416        N  0.45484635  0.77064973  0.43965917    -0.35200
C417        C  0.44131721  0.77783896  0.44805509     0.01000
C418        C  0.44588159  0.80231064  0.44356023     0.07000
C419        C  0.46256866  0.80895996  0.43199860    -0.06100
H420        H  0.42870135  0.76588249  0.45669261     0.07700
H421        H  0.46977605  0.82633800  0.42530664     0.08900
Cu422      Cu  0.45473797  0.73534536  0.44087050     0.44200
Cu423      Cu  0.48972711  0.78583734  0.41388717     0.42000
Cu424      Cu  0.48801433  0.72258593  0.41331030     0.43900
N425        N  0.45462692  0.70006519  0.43941867    -0.34800
N426        N  0.46638537  0.69508386  0.42909676    -0.29000
C427        C  0.46144453  0.67005090  0.43062093    -0.05100
C428        C  0.44612182  0.65887872  0.44257672     0.07100
C429        C  0.44204035  0.67843687  0.44784210     0.00900
H430        H  0.46829069  0.66057263  0.42348755     0.08500
H431        H  0.43008661  0.67676725  0.45686057     0.07600
N432        N  0.50926736  0.75362042  0.39904586    -0.36200
N433        N  0.51002585  0.77657376  0.39923523    -0.28400
C434        C  0.52610078  0.79233572  0.38879992    -0.03600
C435        C  0.53618793  0.77879715  0.38180300     0.05000
C436        C  0.52478838  0.75420407  0.38850449     0.03100
H437        H  0.53008332  0.81217323  0.38647131     0.08200
H438        H  0.52793379  0.73805580  0.38604880     0.07000
O439        O  0.37617166  0.93145094  0.51914426    -0.73000
O440        O  0.30583599  0.89676698  0.49811040    -0.74000
O441        O  0.35136157  0.89157094  0.49798385    -0.62600
O442        O  0.33013679  0.93616184  0.51945409    -0.71000
O443        O  0.34873035  0.96790730  0.50327772    -0.70600
O444        O  0.37084712  0.92328559  0.48180320    -0.61800
O445        O  0.32503872  0.92817091  0.48170400    -0.74400
O446        O  0.39485948  0.96339110  0.50300570    -0.73100
Cu447      Cu  0.34022409  0.91292026  0.50923260     1.04600
Cu448      Cu  0.36051581  0.94682158  0.49188506     1.04300
C449        C  0.39676133  0.95275564  0.51427294     0.93200
C450        C  0.30437316  0.90700899  0.48657759     0.92300
C451        C  0.36445979  0.90022627  0.48653155     0.84500
C452        C  0.33602176  0.95909051  0.51486698     0.90700
N453        N  0.08091958  0.31070021  0.42347957    -0.27400
N454        N  0.07972429  0.32895722  0.43099824    -0.35200
C455        C  0.10258620  0.34320243  0.43843895     0.01000
C456        C  0.11889013  0.33333088  0.43549337     0.07000
C457        C  0.10467932  0.31293751  0.42584867    -0.06100
H458        H  0.10691116  0.35939147  0.44554976     0.07700
H459        H  0.11086161  0.30025079  0.42116572     0.08900
Cu460      Cu  0.04655797  0.33276951  0.43126528     0.44200
Cu461      Cu  0.04960471  0.28314963  0.41085770     0.42000
Cu462      Cu  0.98804440  0.28446227  0.41107520     0.43900
N463        N  0.01019604  0.33078122  0.43143832    -0.34800
N464        N  0.98870097  0.31297795  0.42425248    -0.29000
C465        C  0.96814763  0.31616993  0.42732411    -0.05100
C466        C  0.97708673  0.33677555  0.43703507     0.07100
C467        C  0.00392308  0.34577030  0.43924586     0.00900
H468        H  0.94813970  0.30420526  0.42289784     0.08500
H469        H  0.01767877  0.36150992  0.44635474     0.07600
N470        N  0.99380580  0.25895416  0.39858098    -0.36200
N471        N  0.01620191  0.25861468  0.39858689    -0.28400
C472        C  0.01408360  0.24088768  0.38897024    -0.03600
C473        C  0.98930431  0.22967347  0.38244544     0.05000
C474        C  0.97680607  0.24135090  0.38893269     0.03100
H475        H  0.02980995  0.23704425  0.38660635     0.08200
H476        H  0.95696434  0.23758328  0.38674038     0.07000
N477        N  0.70115317  0.53662538  0.57198672    -0.27400
N478        N  0.68518102  0.52572754  0.56100555    -0.35200
C479        C  0.69435744  0.51346820  0.55299435     0.01000
C480        C  0.71734619  0.51669896  0.55913923     0.07000
C481        C  0.72086092  0.53129252  0.57129927    -0.06100
H482        H  0.68487662  0.50288557  0.54336685     0.07700
H483        H  0.73627116  0.53724847  0.57920187     0.08900
Cu484      Cu  0.65077892  0.52660399  0.55760941     0.44200
Cu485      Cu  0.69501362  0.55848923  0.58709106     0.42000
Cu486      Cu  0.63408777  0.56101460  0.58284729     0.43900
N487        N  0.61588890  0.52730623  0.55666229    -0.34800
N488        N  0.60962510  0.53991933  0.56588021    -0.29000
C489        C  0.58550132  0.53602548  0.56246011    -0.05100
C490        C  0.57622472  0.52035667  0.55043578     0.07100
C491        C  0.59593557  0.51495089  0.54719425     0.00900
H492        H  0.57538109  0.54389223  0.56834298     0.08500
H493        H  0.59556211  0.50236279  0.53880538     0.07600
N494        N  0.66247667  0.58081129  0.59861388    -0.36200
N495        N  0.68459970  0.58015230  0.60006713    -0.28400
C496        C  0.69848267  0.59516987  0.61124135    -0.03600
C497        C  0.68453534  0.60589823  0.61707483     0.05000
C498        C  0.66166992  0.59610834  0.60887319     0.03100
H499        H  0.71703972  0.59754200  0.61504010     0.08200
H500        H  0.64555734  0.59977869  0.61028423     0.07000
O501        O  0.85064374  0.44962382  0.48202129    -0.73000
O502        O  0.81090921  0.37956293  0.50273984    -0.74000
O503        O  0.80965714  0.42764911  0.50264830    -0.62600
O504        O  0.85204431  0.40192747  0.48219066    -0.71000
O505        O  0.88338887  0.42006983  0.49860777    -0.70600
O506        O  0.84002125  0.44351199  0.51974304    -0.61800
O507        O  0.84267623  0.39639813  0.51913531    -0.74400
O508        O  0.88099570  0.46692435  0.49907269    -0.73100
Cu509      Cu  0.82966791  0.41408563  0.49183196     1.04600
Cu510      Cu  0.86278245  0.43232391  0.50973386     1.04300
C511        C  0.87224760  0.46931639  0.48724093     0.93200
C512        C  0.82106279  0.37667023  0.51395151     0.92300
C513        C  0.81817188  0.43961815  0.51444254     0.84500
C514        C  0.87459225  0.40698292  0.48715505     0.90700
O515        O  0.30523567  0.41548356  0.49043419    -0.73000
O516        O  0.37619388  0.44579913  0.51035748    -0.74000
O517        O  0.35439985  0.46559768  0.49088309    -0.62600
O518        O  0.32647827  0.39560192  0.51024340    -0.71000
O519        O  0.34117675  0.38119307  0.49315314    -0.70600
O520        O  0.36926282  0.45236214  0.47326938    -0.61800
O521        O  0.39064504  0.43155517  0.49294679    -0.74400
O522        O  0.31996675  0.40134149  0.47317804    -0.73100
Cu523      Cu  0.34008662  0.43107087  0.50106856     1.04600
Cu524      Cu  0.35581590  0.41614144  0.48250821     1.04300
C525        C  0.30139538  0.40360272  0.47863967     0.93200
C526        C  0.39451765  0.44318501  0.50478865     0.92300
C527        C  0.36581072  0.47010265  0.47897496     0.84500
C528        C  0.32919027  0.37720048  0.50492197     0.90700
C529        C  0.78515943  0.45824672  0.54280102    -0.11500
C530        C  0.77665091  0.47267536  0.53498847     0.15100
C531        C  0.78162051  0.47588094  0.52042493     0.02000
C532        C  0.79442948  0.46417469  0.51398025    -0.15800
C533        C  0.80305399  0.44978876  0.52176657    -0.10600
C534        C  0.79807953  0.44660675  0.53634793     0.08700
C535        C  0.76128884  0.48284562  0.54209129     0.09700
S536        S  0.77200262  0.49450823  0.50945194    -0.25000
H537        H  0.79833032  0.46692020  0.50282056     0.20000
S538        S  0.80642276  0.42679694  0.54714036    -0.30700
H539        H  0.78103994  0.45542198  0.55393802     0.10300
C540        C  0.73309008  0.46926334  0.54085869     0.03500
C541        C  0.71940633  0.48055132  0.54679862    -0.13000
C542        C  0.73329539  0.50547555  0.55380162    -0.08600
C543        C  0.76169972  0.51894763  0.55506287     0.07000
C544        C  0.77523035  0.50719970  0.54947418    -0.13700
S545        S  0.71454868  0.43756544  0.53163691    -0.30600
H546        H  0.69769680  0.46987501  0.54592954     0.11200
S547        S  0.78223729  0.55205464  0.56252480    -0.27700
H548        H  0.79698296  0.51778968  0.55025531     0.08400
H549        H  0.80129620  0.40761388  0.53674724     0.26900
H550        H  0.68899177  0.43420230  0.53278580     0.21700
H551        H  0.76759222  0.56218800  0.55631320     0.27000
H552        H  0.77359195  0.51228469  0.51982781     0.15800
C553        C  0.45768934  0.44977453  0.51992293    -0.11500
C554        C  0.47195551  0.47671127  0.52426264     0.15100
C555        C  0.46042236  0.49241507  0.52239004     0.02000
C556        C  0.43470559  0.48070287  0.51646863    -0.15800
C557        C  0.42050816  0.45381691  0.51201214    -0.10600
C558        C  0.43204226  0.43811069  0.51393285     0.08700
C559        C  0.49844619  0.48760111  0.53108247     0.09700
S560        S  0.47748123  0.52745611  0.52724561    -0.25000
H561        H  0.42604388  0.49289797  0.51492759     0.20000
S562        S  0.41460407  0.40285802  0.50951398    -0.30700
H563        H  0.46638899  0.43761960  0.52148625     0.10300
C564        C  0.50143146  0.49076073  0.54571625     0.03500
C565        C  0.52707448  0.50180493  0.55171404    -0.13000
C566        C  0.54988468  0.50985733  0.54336730    -0.08600
C567        C  0.54672225  0.50697336  0.52862518     0.07000
C568        C  0.52102639  0.49540538  0.52270869    -0.13700
S569        S  0.47245838  0.48018547  0.55674609    -0.30600
H570        H  0.52928737  0.50372877  0.56298601     0.11200
S571        S  0.57458803  0.51916417  0.51666252    -0.27700
H572        H  0.51869532  0.49328533  0.51142853     0.08400
H573        H  0.38876720  0.39727797  0.51291966     0.26900
H574        H  0.48650630  0.48854373  0.56954608     0.21700
H575        H  0.59205835  0.54232099  0.52453550     0.27000
H576        H  0.50386471  0.53333988  0.52538621     0.15800
C577        C  0.92143603  0.34077878  0.45513979    -0.11500
C578        C  0.93334961  0.36869159  0.45628416     0.15100
C579        C  0.95976664  0.38595909  0.45120454     0.02000
C580        C  0.97358660  0.37496789  0.44514801    -0.15800
C581        C  0.96157896  0.34702767  0.44385910    -0.10600
C582        C  0.93529128  0.32977681  0.44915905     0.08700
C583        C  0.91852014  0.37898770  0.46384818     0.09700
S584        S  0.97688774  0.42212382  0.45206041    -0.25000
H585        H  0.99376062  0.38839167  0.44117919     0.20000
S586        S  0.91903711  0.29370403  0.44963947    -0.30700
H587        H  0.90148327  0.32743941  0.45939685     0.10300
C588        C  0.89441707  0.37553354  0.45857344     0.03500
C589        C  0.88059915  0.38472849  0.46642089    -0.13000
C590        C  0.89033230  0.39750879  0.47950511    -0.08600
C591        C  0.91481454  0.40099074  0.48464732     0.07000
C592        C  0.92844932  0.39175587  0.47677646    -0.13700
S593        S  0.88171983  0.36020530  0.44161949    -0.30600
H594        H  0.86215577  0.38206193  0.46222993     0.11200
S595        S  0.93023881  0.41700111  0.50105108    -0.27700
H596        H  0.94694013  0.39426690  0.48085828     0.08400
H597        H  0.94266470  0.29396511  0.45275689     0.26900
H598        H  0.85869237  0.36197912  0.44158640     0.21700
H599        H  0.90751096  0.39902413  0.50897100     0.27000
H600        H  0.95360518  0.42336888  0.45118409     0.15800
C601        C  0.23809076  0.36021494  0.45677153    -0.11500
C602        C  0.22549767  0.37486972  0.45790001     0.15100
C603        C  0.23826060  0.39913976  0.46559676     0.02000
C604        C  0.26274345  0.40772936  0.47232670    -0.15800
C605        C  0.27551040  0.39321180  0.47117853    -0.10600
C606        C  0.26307242  0.36930816  0.46310221     0.08700
C607        C  0.19818792  0.36340328  0.45190536     0.09700
S608        S  0.22444918  0.42016268  0.46716089    -0.25000
H609        H  0.27216371  0.42625208  0.47831867     0.20000
S610        S  0.27703486  0.34855774  0.46131292    -0.30700
H611        H  0.22819918  0.34136507  0.45105375     0.10300
C612        C  0.19335644  0.35994914  0.43734814     0.03500
C613        C  0.16706537  0.34925808  0.43227675    -0.13000
C614        C  0.14567275  0.34246525  0.44145560    -0.08600
C615        C  0.15055266  0.34550754  0.45603963     0.07000
C616        C  0.17667066  0.35592733  0.46107438    -0.13700
S617        S  0.22080154  0.37042251  0.42520887    -0.30600
H618        H  0.16324686  0.34694046  0.42110582     0.11200
S619        S  0.12430955  0.33576015  0.46881333    -0.27700
H620        H  0.18029616  0.35818385  0.47227462     0.08400
H621        H  0.29869292  0.36770724  0.45309005     0.26900
H622        H  0.20555708  0.36479989  0.41286172     0.21700
H623        H  0.10433084  0.31345624  0.46122383     0.27000
H624        H  0.21153871  0.41348037  0.45403395     0.15800
C625        C  0.38928586  0.87153553  0.45871347    -0.11500
C626        C  0.39442247  0.85490957  0.46692171     0.15100
C627        C  0.38812249  0.85203769  0.48133187     0.02000
C628        C  0.37743586  0.86623898  0.48723483    -0.15800
C629        C  0.37308112  0.88367326  0.47917003    -0.10600
C630        C  0.37826717  0.88551947  0.46459145     0.08700
C631        C  0.40693902  0.84134755  0.46025842     0.09700
S632        S  0.39364998  0.83100147  0.49285026    -0.25000
H633        H  0.37340842  0.86433967  0.49838643     0.20000
S634        S  0.37024576  0.90429549  0.45280255    -0.30700
H635        H  0.39360841  0.87336197  0.44759289     0.10300
C636        C  0.39208036  0.81357260  0.45733776     0.03500
C637        C  0.40536722  0.80141568  0.45192779    -0.13000
C638        C  0.43318728  0.81650077  0.44922420    -0.08600
C639        C  0.44792902  0.84442200  0.45205099     0.07000
C640        C  0.43459963  0.85653960  0.45736339    -0.13700
S641        S  0.35619500  0.79372053  0.46034523    -0.30600
H642        H  0.39400954  0.78007281  0.44966873     0.11200
S643        S  0.48391686  0.86542051  0.44995294    -0.27700
H644        H  0.44605479  0.87786395  0.45973318     0.08400
H645        H  0.34594419  0.89714504  0.45950994     0.26900
H646        H  0.35197348  0.76919017  0.45536355     0.21700
H647        H  0.48925024  0.84572601  0.45419245     0.27000
H648        H  0.41615393  0.83401759  0.48583033     0.15800
C649        C  0.37500905  0.53741437  0.46926793    -0.11500
C650        C  0.39896314  0.54927825  0.46158826     0.15100
C651        C  0.41101699  0.53429972  0.45880052     0.02000
C652        C  0.39908870  0.50802103  0.46397040    -0.15800
C653        C  0.37551518  0.49637039  0.47206563    -0.10600
C654        C  0.36291098  0.51109898  0.47428403     0.08700
C655        C  0.41065337  0.57721801  0.45658921     0.09700
S656        S  0.44183336  0.54765403  0.44897740    -0.25000
H657        H  0.40892465  0.49701403  0.46212378     0.20000
S658        S  0.33081377  0.49722602  0.48288886    -0.30700
H659        H  0.36540542  0.54863917  0.47116263     0.10300
C660        C  0.40892997  0.58293561  0.44243739     0.03500
C661        C  0.42110435  0.60979566  0.43812870    -0.13000
C662        C  0.43449062  0.63107289  0.44774397    -0.08600
C663        C  0.43579446  0.62519446  0.46198657     0.07000
C664        C  0.42368372  0.59837972  0.46625289    -0.13700
S665        S  0.39055474  0.55599128  0.42997448    -0.30600
H666        H  0.41976532  0.61427490  0.42726620     0.11200
S667        S  0.45358105  0.65086220  0.47510608    -0.27700
H668        H  0.42494499  0.59395683  0.47714886     0.08400
H669        H  0.31970668  0.47135828  0.47710796     0.26900
H670        H  0.39397432  0.57231574  0.41838722     0.21700
H671        H  0.47428895  0.66913084  0.46613946     0.27000
H672        H  0.45277599  0.57483467  0.45238620     0.15800
C673        C  0.30554196  0.30483581  0.51537802    -0.11500
C674        C  0.30073828  0.30543508  0.52971673     0.15100
C675        C  0.30497871  0.32932292  0.53573109     0.02000
C676        C  0.31377540  0.35196314  0.52730882    -0.15800
C677        C  0.31880631  0.35170136  0.51289539    -0.10600
C678        C  0.31409080  0.32744810  0.50687284     0.08700
C679        C  0.29166452  0.28096439  0.53816859     0.09700
S680        S  0.29955520  0.33233042  0.55407550    -0.25000
H681        H  0.31719417  0.37017910  0.53221962     0.20000
S682        S  0.31727656  0.32339945  0.48842410    -0.30700
H683        H  0.30207100  0.28638957  0.51072660     0.10300
C684        C  0.26459415  0.26403372  0.54229818     0.03500
C685        C  0.25717353  0.24116439  0.55043832    -0.13000
C686        C  0.27635586  0.23500292  0.55452014    -0.08600
C687        C  0.30366316  0.25276831  0.55084622     0.07000
C688        C  0.31088718  0.27516933  0.54250308    -0.13700
S689        S  0.23945914  0.27114074  0.53683017    -0.30600
H690        H  0.23626951  0.22756876  0.55324060     0.11200
S691        S  0.33046252  0.24876445  0.55700567    -0.27700
H692        H  0.33181185  0.28860994  0.53963377     0.08400
H693        H  0.30336581  0.33588447  0.48443719     0.26900
H694        H  0.21784899  0.25010325  0.54428777     0.21700
H695        H  0.31843495  0.23753539  0.56999593     0.27000
H696        H  0.30572869  0.31368447  0.55906744     0.15800
C697        C  0.31122010  0.98595879  0.54378187    -0.11500
C698        C  0.30808606  0.00472861  0.53635311     0.15100
C699        C  0.31493324  0.00899230  0.52201405     0.02000
C700        C  0.32457132  0.99437109  0.51543870    -0.15800
C701        C  0.32746493  0.97524135  0.52277598    -0.10600
C702        C  0.32109147  0.97148701  0.53727122     0.08700
C703        C  0.29921136  0.02069310  0.54403282     0.09700
S704        S  0.31157209  0.03258752  0.51147255    -0.25000
H705        H  0.32926825  0.99759829  0.50437020     0.20000
S706        S  0.32636299  0.94978014  0.54833688    -0.30700
H707        H  0.30659519  0.98309397  0.55487166     0.10300
C708        C  0.27269111  0.00894988  0.54909332     0.03500
C709        C  0.26512275  0.02507404  0.55601898    -0.13000
C710        C  0.28354391  0.05272584  0.55802309    -0.08600
C711        C  0.31043307  0.06413124  0.55345011     0.07000
C712        C  0.31782935  0.04810966  0.54638104    -0.13700
S713        S  0.24813748  0.97372892  0.54614676    -0.30600
H714        H  0.24453457  0.01629245  0.55949299     0.11200
S715        S  0.33659984  0.09858798  0.55683361    -0.27700
H716        H  0.33839569  0.05700829  0.54280011     0.08400
H717        H  0.35184219  0.95815823  0.54271074     0.26900
H718        H  0.22717592  0.97262049  0.55390935     0.21700
H719        H  0.32656276  0.10005464  0.56995853     0.27000
H720        H  0.28968713  0.03030591  0.51883548     0.15800
C721        C  0.77107540  0.27022790  0.55454591    -0.11500
C722        C  0.76866882  0.27226709  0.54005500     0.15100
C723        C  0.75337294  0.24868199  0.53199704     0.02000
C724        C  0.73974849  0.22374293  0.53868866    -0.15800
C725        C  0.74156481  0.22160439  0.55324581    -0.10600
C726        C  0.75750361  0.24522506  0.56125422     0.08700
C727        C  0.78172800  0.29927757  0.53371273     0.09700
S728        S  0.75038438  0.24899896  0.51318381    -0.25000
H729        H  0.72785622  0.20575365  0.53242295     0.20000
S730        S  0.75993774  0.24515272  0.58007168    -0.30700
H731        H  0.78285020  0.28835138  0.56073366     0.10300
C732        C  0.76658311  0.30992298  0.52872981     0.03500
C733        C  0.77986301  0.33520826  0.52223347    -0.13000
C734        C  0.80798637  0.35013589  0.52080026    -0.08600
C735        C  0.82301201  0.33930857  0.52585202     0.07000
C736        C  0.80978317  0.31424247  0.53241960    -0.13700
S737        S  0.73047190  0.29159451  0.53095620    -0.30600
H738        H  0.76839817  0.34357111  0.51841804     0.11200
S739        S  0.85882327  0.35556540  0.52341620    -0.27700
H740        H  0.82134756  0.30589823  0.53614263     0.08400
H741        H  0.73280865  0.22481280  0.58215470     0.26900
H742        H  0.72620328  0.31046217  0.52434594     0.21700
H743        H  0.85841018  0.36381199  0.50963029     0.27000
H744        H  0.77550521  0.27263600  0.51083758     0.15800
C745        C  0.45720843  0.96318177  0.53512593    -0.11500
C746        C  0.47366146  0.99131494  0.53533860     0.15100
C747        C  0.46465336  0.00665843  0.52868090     0.02000
C748        C  0.43966946  0.99357129  0.52182959    -0.15800
C749        C  0.42308272  0.96536429  0.52161481    -0.10600
C750        C  0.43225449  0.95006909  0.52825144     0.08700
C751        C  0.50087088  0.00395090  0.54168173     0.09700
S752        S  0.48404142  0.04294403  0.52858529    -0.25000
H753        H  0.43294534  0.00556653  0.51679025     0.20000
S754        S  0.41408454  0.91386809  0.52751079    -0.30700
H755        H  0.46430013  0.95133142  0.53996989     0.10300
C756        C  0.50462775  0.00457138  0.55630265     0.03500
C757        C  0.53087107  0.01713698  0.56180227    -0.13000
C758        C  0.55341680  0.02913215  0.55295138    -0.08600
C759        C  0.54943243  0.02741111  0.53826619     0.07000
C760        C  0.52331935  0.01518637  0.53282811    -0.13700
S761        S  0.47606357  0.99057135  0.56795112    -0.30600
H762        H  0.53391108  0.01855132  0.57303551     0.11200
S763        S  0.57667810  0.03953841  0.52588035    -0.27700
H764        H  0.52041232  0.01417105  0.52157546     0.08400
H765        H  0.40626664  0.91218493  0.51341115     0.26900
H766        H  0.49069423  0.99621993  0.58052012     0.21700
H767        H  0.59286797  0.03404441  0.53435858     0.27000
H768        H  0.49712382  0.04619215  0.54146299     0.15800
C769        C  0.22982828  0.86887182  0.47762219    -0.11500
C770        C  0.23041182  0.86535931  0.46312906     0.15100
C771        C  0.25549711  0.87718056  0.45621434     0.02000
C772        C  0.27932168  0.89125829  0.46408062    -0.15800
C773        C  0.27872596  0.89402091  0.47867753    -0.10600
C774        C  0.25360962  0.88335859  0.48541247     0.08700
C775        C  0.20435701  0.84879571  0.45578011     0.09700
S776        S  0.25878814  0.87467581  0.43754661    -0.25000
H777        H  0.29850189  0.89959879  0.45879646     0.20000
S778        S  0.25055138  0.88842241  0.50377969    -0.30700
H779        H  0.21061473  0.86029427  0.48290283     0.10300
C780        C  0.19321804  0.82115992  0.45339484     0.03500
C781        C  0.16742467  0.80568574  0.44744746    -0.13000
C782        C  0.15242490  0.81725379  0.44390488    -0.08600
C783        C  0.16371622  0.84501978  0.44641597     0.07000
C784        C  0.18960365  0.86047766  0.45216265    -0.13700
S785        S  0.21164865  0.80554956  0.45823600    -0.30600
H786        H  0.15883552  0.78444352  0.44557293     0.11200
S787        S  0.14551884  0.86157004  0.44359661    -0.27700
H788        H  0.19799573  0.88163318  0.45428282     0.08400
H789        H  0.27360441  0.91456517  0.50433996     0.26900
H790        H  0.19149619  0.77911209  0.45454605     0.21700
H791        H  0.12074119  0.83995563  0.44844598     0.27000
H792        H  0.23213428  0.86529427  0.43360556     0.15800
C793        C  0.91709201  0.58448598  0.45512672    -0.11500
C794        C  0.93089612  0.57234225  0.45968863     0.15100
C795        C  0.95913892  0.58623950  0.45838236     0.02000
C796        C  0.97303622  0.61225934  0.45290098    -0.15800
C797        C  0.95939547  0.62475977  0.44846541    -0.10600
C798        C  0.93098255  0.61060571  0.44969709     0.08700
C799        C  0.91555683  0.54606854  0.46676046     0.09700
S800        S  0.97863501  0.57209082  0.46374147    -0.25000
H801        H  0.99472923  0.62266535  0.45189818     0.20000
S802        S  0.91132110  0.62513186  0.44554593    -0.30700
H803        H  0.89541287  0.57390727  0.45632866     0.10300
C804        C  0.91494091  0.54429190  0.48146728     0.03500
C805        C  0.90075394  0.51896634  0.48782654    -0.13000
C806        C  0.88718643  0.49530823  0.47977727    -0.08600
C807        C  0.88816390  0.49726316  0.46497248     0.07000
C808        C  0.90190034  0.52262573  0.45865432    -0.13700
S809        S  0.93191707  0.57433696  0.49212332    -0.30600
H810        H  0.89996044  0.51759596  0.49914369     0.11200
S811        S  0.87382410  0.46839354  0.45354389    -0.27700
H812        H  0.90273168  0.52411753  0.44732802     0.08400
H813        H  0.93047059  0.65089286  0.45065077     0.26900
H814        H  0.92544210  0.56134835  0.50520034     0.21700
H815        H  0.88196050  0.45408595  0.46184075     0.27000
H816        H  0.95855494  0.54508627  0.46120172     0.15800
C817        C  0.69882759  0.67888875  0.67315710    -0.11500
C818        C  0.70936444  0.66291027  0.66987312     0.15100
C819        C  0.72630542  0.66083472  0.67966035     0.02000
C820        C  0.73226280  0.67466930  0.69240886    -0.15800
C821        C  0.72152975  0.69044672  0.69576710    -0.10600
C822        C  0.70438070  0.69231868  0.68602933     0.08700
C823        C  0.70254819  0.64889406  0.65613985     0.09700
S824        S  0.74092210  0.64086645  0.67656694    -0.25000
H825        H  0.74553406  0.67318884  0.69976815     0.20000
S826        S  0.68803340  0.71048121  0.68958906    -0.30700
H827        H  0.68580213  0.68054596  0.66569932     0.10300
C828        C  0.67603869  0.62794509  0.65291104     0.03500
C829        C  0.67062022  0.61483067  0.63991804    -0.13000
C830        C  0.69115551  0.62209757  0.63006717    -0.08600
C831        C  0.71751196  0.64375837  0.63315622     0.07000
C832        C  0.72294007  0.65669139  0.64616638    -0.13700
S833        S  0.64934352  0.61689885  0.66560330    -0.30600
H834        H  0.65045402  0.59820870  0.63760196     0.11200
S835        S  0.74482465  0.65666323  0.62078805    -0.27700
H836        H  0.74320459  0.67315985  0.64851127     0.08400
H837        H  0.68441411  0.70454588  0.70398556     0.26900
H838        H  0.62820136  0.59842716  0.65684574     0.21700
H839        H  0.72865625  0.65177479  0.60888052     0.27000
H840        H  0.71949885  0.62092244  0.66849247     0.15800
C841        C  0.75328541  0.06156066  0.63764945    -0.11500
C842        C  0.73926574  0.05421612  0.65037671     0.15100
C843        C  0.71434972  0.05254434  0.65127716     0.02000
C844        C  0.70406527  0.05828849  0.63946773    -0.15800
C845        C  0.71810434  0.06574292  0.62672991    -0.10600
C846        C  0.74291229  0.06711635  0.62581325     0.08700
C847        C  0.75110141  0.04842220  0.66252714     0.09700
S848        S  0.69500694  0.04381862  0.66723111    -0.25000
H849        H  0.68516202  0.05741740  0.64029892     0.20000
S850        S  0.76188947  0.07497351  0.60978881    -0.30700
H851        H  0.77233426  0.06270198  0.63691221     0.10300
C852        C  0.74975879  0.02379326  0.66366240     0.03500
C853        C  0.75985127  0.01843226  0.67572700    -0.13000
C854        C  0.77138630  0.03728735  0.68666798    -0.08600
C855        C  0.77394032  0.06254684  0.68511565     0.07000
C856        C  0.76343298  0.06765733  0.67318426    -0.13700
S857        S  0.73398897  0.99869841  0.65004090    -0.30600
H858        H  0.75787732  0.99910054  0.67686534     0.11200
S859        S  0.79125858  0.08947690  0.69764996    -0.27700
H860        H  0.76498517  0.08683421  0.67214537     0.08400
H861        H  0.73929847  0.06253970  0.60087740     0.26900
H862        H  0.73954303  0.98013475  0.65589275     0.21700
H863        H  0.81043512  0.08306441  0.70142803     0.27000
H864        H  0.70333850  0.02720742  0.67280332     0.15800
C865        C  0.09855864  0.06320222  0.67715456    -0.11500
C866        C  0.11643295  0.05454050  0.67479765     0.15100
C867        C  0.11865090  0.03824772  0.68492361     0.02000
C868        C  0.10222434  0.03012857  0.69679631    -0.15800
C869        C  0.08415880  0.03859613  0.69914078    -0.10600
C870        C  0.08277357  0.05581198  0.68927695     0.08700
C871        C  0.13325897  0.06388315  0.66199882     0.09700
S872        S  0.14227563  0.02748131  0.68350930    -0.25000
H873        H  0.10364461  0.01708185  0.70430743     0.20000
S874        S  0.06257141  0.07029657  0.69185624    -0.30700
H875        H  0.09730131  0.07628496  0.66959509     0.10300
C876        C  0.13013081  0.04608897  0.65116660     0.03500
C877        C  0.14705146  0.05609168  0.63942228    -0.13000
C878        C  0.16692591  0.08357627  0.63819649    -0.08600
C879        C  0.17011331  0.10124262  0.64919431     0.07000
C880        C  0.15302886  0.09127948  0.66080661    -0.13700
S881        S  0.10394952  0.01088321  0.65200577    -0.30600
H882        H  0.14436610  0.04253598  0.63098610     0.11200
S883        S  0.19648767  0.13630608  0.64956817    -0.27700
H884        H  0.15564993  0.10490473  0.66921328     0.08400
H885        H  0.06643081  0.07326446  0.70644814     0.26900
H886        H  0.11210493  0.00270942  0.64016942     0.21700
H887        H  0.21606410  0.13243974  0.64350428     0.27000
H888        H  0.16202549  0.04997012  0.67601872     0.15800
C889        C  0.41433915  0.84399931  0.04105417    -0.11500
C890        C  0.40117194  0.81638513  0.03826835     0.15100
C891        C  0.37932647  0.80457972  0.02878178     0.02000
C892        C  0.37199080  0.82077857  0.02184937    -0.15800
C893        C  0.38534985  0.84862821  0.02440177    -0.10600
C894        C  0.40658502  0.86015512  0.03437965     0.08700
C895        C  0.41128859  0.80061174  0.04498712     0.09700
S896        S  0.36006242  0.76900716  0.02497360    -0.25000
H897        H  0.35535936  0.81133941  0.01448879     0.20000
S898        S  0.42554881  0.89541603  0.03861118    -0.30700
H899        H  0.43106406  0.85311301  0.04837111     0.10300
C900        C  0.42482530  0.79092628  0.03717551     0.03500
C901        C  0.43272423  0.77478818  0.04374378    -0.13000
C902        C  0.42781324  0.76846543  0.05803966    -0.08600
C903        C  0.41464782  0.77861144  0.06590650     0.07000
C904        C  0.40676979  0.79475124  0.05932902    -0.13700
S905        S  0.43266282  0.79970246  0.01892208    -0.30600
H906        H  0.44315145  0.76734281  0.03777284     0.11200
S907        S  0.40608446  0.77063694  0.08412391    -0.27700
H908        H  0.39631657  0.80215437  0.06533222     0.08400
H909        H  0.40322848  0.89444226  0.04476906     0.26900
H910        H  0.44468660  0.78472778  0.01646454     0.21700
H911        H  0.40071649  0.74429366  0.08325070     0.27000
H912        H  0.36405661  0.76046645  0.03799703     0.15800
C913        C  0.12887773  0.03663665  0.84950676    -0.11500
C914        C  0.11097532  0.00886641  0.84786204     0.15100
C915        C  0.11154988  0.99112637  0.85761531     0.02000
C916        C  0.12995775  0.00148546  0.86874418    -0.15800
C917        C  0.14792487  0.02933163  0.87049946    -0.10600
C918        C  0.14755311  0.04704033  0.86052737     0.08700
C919        C  0.09361937  0.99907820  0.83522256     0.09700
S920        S  0.08934281  0.95510373  0.85643200    -0.25000
H921        H  0.12987187  0.98759448  0.87625222     0.20000
S922        S  0.17152883  0.08280040  0.86050198    -0.30700
H923        H  0.12895183  0.05027183  0.84181583     0.10300
C924        C  0.07082800  0.00118088  0.83388062     0.03500
C925        C  0.05618317  0.99345037  0.82126603    -0.13000
C926        C  0.06401446  0.98376994  0.80997330    -0.08600
C927        C  0.08595369  0.98027946  0.81167804     0.07000
C928        C  0.10065933  0.98822492  0.82419212    -0.13700
S929        S  0.06063852  0.01396883  0.84818311    -0.30600
H930        H  0.03929317  0.99600255  0.81997583     0.11200
S931        S  0.09591444  0.96543476  0.79837351    -0.27700
H932        H  0.11787701  0.98612328  0.82532127     0.08400
H933        H  0.19342763  0.08084820  0.86478857     0.26900
H934        H  0.03685197  0.00952919  0.84191081     0.21700
H935        H  0.06989280  0.94843756  0.79285808     0.27000
H936        H  0.06785743  0.95526343  0.84994978     0.15800
C937        C  0.29031256  0.96990437  0.94598115    -0.11500
C938        C  0.29120894  0.96856860  0.96063132     0.15100
C939        C  0.28123786  0.98139341  0.96885901     0.02000
C940        C  0.27134740  0.99580192  0.96232302    -0.15800
C941        C  0.27058918  0.99741582  0.94765237    -0.10600
C942        C  0.28031315  0.98425731  0.93941067     0.08700
C943        C  0.30413824  0.95513120  0.96705761     0.09700
S944        S  0.28041060  0.97997018  0.98774111    -0.25000
H945        H  0.26375773  0.00552364  0.96879834     0.20000
S946        S  0.28231843  0.98640856  0.92058162    -0.30700
H947        H  0.29827356  0.96037798  0.93962366     0.10300
C948        C  0.29200706  0.92701644  0.96652865     0.03500
C949        C  0.30466320  0.91517818  0.97312695    -0.13000
C950        C  0.32936513  0.93086377  0.98021482    -0.08600
C951        C  0.34197437  0.95920116  0.98017664     0.07000
C952        C  0.32906530  0.97091205  0.97381051    -0.13700
S953        S  0.25976446  0.90609932  0.95805053    -0.30600
H954        H  0.29484274  0.89349962  0.97311657     0.11200
S955        S  0.37496288  0.98164584  0.98748238    -0.27700
H956        H  0.33869182  0.99259474  0.97395592     0.08400
H957        H  0.29017567  0.01359170  0.92003158     0.26900
H958        H  0.25868800  0.88166243  0.95938846     0.21700
H959        H  0.38570711  0.96639010  0.98294542     0.27000
H960        H  0.27687168  0.95437561  0.98880502     0.15800
C961        C  0.24783149  0.81152497  0.03294545    -0.11500
C962        C  0.23874540  0.82714991  0.03894796     0.15100
C963        C  0.25539536  0.85544750  0.03851692     0.02000
C964        C  0.28028254  0.86744333  0.03172242    -0.15800
C965        C  0.28883185  0.85184031  0.02510338    -0.10600
C966        C  0.27272566  0.82350845  0.02616181     0.08700
C967        C  0.21159350  0.81326295  0.04528507     0.09700
S968        S  0.24573887  0.87735443  0.04601437    -0.25000
H969        H  0.29258035  0.88918824  0.03111077     0.20000
S970        S  0.28315522  0.80159055  0.01958400    -0.30700
H971        H  0.23536747  0.78978596  0.03355963     0.10300
C972        C  0.18839564  0.79908106  0.03685809     0.03500
C973        C  0.16299553  0.78562990  0.04316844    -0.13000
C974        C  0.16012144  0.78597570  0.05776711    -0.08600
C975        C  0.18348533  0.80027401  0.06620153     0.07000
C976        C  0.20891893  0.81394443  0.05985630    -0.13700
S977        S  0.19107613  0.79870809  0.01800239    -0.30600
H978        H  0.14517934  0.77492526  0.03665873     0.11200
S979        S  0.18244472  0.80063913  0.08505427    -0.27700
H980        H  0.22681223  0.82468924  0.06633345     0.08400
H981        H  0.31053845  0.81897634  0.02299591     0.26900
H982        H  0.16334680  0.78227046  0.01515691     0.21700
H983        H  0.16126730  0.77364171  0.08632091     0.27000
H984        H  0.21798482  0.86046567  0.04341466     0.15800
C985        C  0.42872514  0.49987486  0.03137637    -0.11500
C986        C  0.41337749  0.51184034  0.03092173     0.15100
C987        C  0.38864363  0.49871153  0.02356115     0.02000
C988        C  0.37996533  0.47422695  0.01679692    -0.15800
C989        C  0.39504685  0.46198611  0.01744902    -0.10600
C990        C  0.41994238  0.47526230  0.02470282     0.08700
C991        C  0.42419251  0.53855238  0.03762678     0.09700
S992        S  0.36693869  0.51184278  0.02265533    -0.25000
H993        H  0.36084745  0.46425729  0.01129297     0.20000
S994        S  0.44212855  0.46268015  0.02518687    -0.30700
H995        H  0.44798928  0.51009733  0.03674001     0.10300
C996        C  0.42740503  0.54198898  0.05227514     0.03500
C997        C  0.43683334  0.56746620  0.05814063    -0.13000
C998        C  0.44310427  0.58967059  0.04969171    -0.08600
C999        C  0.44086703  0.58632341  0.03496606     0.07000
C1000       C  0.43121629  0.56086067  0.02914509    -0.13700
S1001       S  0.41828171  0.51369658  0.06356915    -0.30600
H1002       H  0.43857294  0.56994367  0.06940522     0.11200
S1003       S  0.45111716  0.61380857  0.02296485    -0.27700
H1004       H  0.42936198  0.55841655  0.01786518     0.08400
H1005       H  0.43683763  0.45303503  0.01132461     0.26900
H1006       H  0.42491605  0.52784670  0.07632638     0.21700
H1007       H  0.47292894  0.63293440  0.03116460     0.27000
H1008       H  0.37373048  0.52415203  0.03592544     0.15800
C1009       C  0.28508152  0.21341274  0.97152744    -0.11500
C1010       C  0.29597611  0.23470783  0.96192655     0.15100
C1011       C  0.29255392  0.22899115  0.94743179     0.02000
C1012       C  0.27774912  0.20221530  0.94288757    -0.15800
C1013       C  0.26689204  0.18084236  0.95247663    -0.10600
C1014       C  0.27043289  0.18662644  0.96699132     0.08700
C1015       C  0.30927281  0.26253577  0.96740766     0.09700
S1016       S  0.30681016  0.25490537  0.93423276    -0.25000
H1017       H  0.27547689  0.19803264  0.93174263     0.20000
S1018       S  0.25570354  0.16090088  0.98026633    -0.30700
H1019       H  0.28737945  0.21772867  0.98266134     0.10300
C1020       C  0.29622251  0.27695310  0.96703261     0.03500
C1021       C  0.30918991  0.30303039  0.97262498    -0.13000
C1022       C  0.33482078  0.31490567  0.97879001    -0.08600
C1023       C  0.34809365  0.30058296  0.97887214     0.07000
C1024       C  0.33504090  0.27446071  0.97336179    -0.13700
S1025       S  0.26256051  0.26168658  0.95997575    -0.30600
H1026       H  0.29896492  0.31392556  0.97260892     0.11200
S1027       S  0.38196247  0.31483343  0.98534692    -0.27700
H1028       H  0.34516663  0.26345257  0.97353630     0.08400
H1029       H  0.23245931  0.14314189  0.97250948     0.26900
H1030       H  0.25896981  0.28303250  0.96308266     0.21700
H1031       H  0.39118323  0.34125566  0.98098704     0.27000
H1032       H  0.32900514  0.27397317  0.94221648     0.15800
C1033       C  0.94085975  0.54957334  0.05361807    -0.11500
C1034       C  0.94120107  0.54755327  0.03900336     0.15100
C1035       C  0.95475277  0.57114813  0.03084630     0.02000
C1036       C  0.96863059  0.59617374  0.03750149    -0.15800
C1037       C  0.96868717  0.59832269  0.05215163    -0.10600
C1038       C  0.95462159  0.57464582  0.06029311     0.08700
C1039       C  0.92788528  0.52058542  0.03257038     0.09700
S1040       S  0.95514160  0.57067274  0.01194618    -0.25000
H1041       H  0.97916588  0.61419813  0.03115964     0.20000
S1042       S  0.95482635  0.57482636  0.07917067    -0.30700
H1043       H  0.93049441  0.53142898  0.05987989     0.10300
C1044       C  0.94287140  0.51011657  0.02716712     0.03500
C1045       C  0.92938034  0.48494975  0.02051856    -0.13000
C1046       C  0.90120908  0.47004773  0.01923609    -0.08600
C1047       C  0.88633938  0.48080484  0.02461016     0.07000
C1048       C  0.89978823  0.50567264  0.03143336    -0.13700
S1049       S  0.97909336  0.52863345  0.02894565    -0.30600
H1050       H  0.94074341  0.47669233  0.01642796     0.11200
S1051       S  0.85049163  0.46482310  0.02222305    -0.27700
H1052       H  0.88837203  0.51397500  0.03542198     0.08400
H1053       H  0.98189234  0.59593916  0.08044872     0.26900
H1054       H  0.98318409  0.51006281  0.02185398     0.21700
H1055       H  0.85062198  0.45666160  0.00838650     0.27000
H1056       H  0.92983702  0.54689380  0.01024014     0.15800
C1057       C  0.77322269  0.68251373  0.83115292    -0.11500
C1058       C  0.74679312  0.66104196  0.83352879     0.15100
C1059       C  0.72689128  0.65454338  0.82325836     0.02000
C1060       C  0.73382165  0.66943285  0.81085637    -0.15800
C1061       C  0.76021979  0.69105913  0.80840919    -0.10600
C1062       C  0.78023247  0.69736226  0.81867547     0.08700
C1063       C  0.74081049  0.64479013  0.84641917     0.09700
S1064       S  0.69245026  0.62702738  0.82514349    -0.25000
H1065       H  0.71823249  0.66431071  0.80313244     0.20000
S1066       S  0.81527486  0.72277606  0.81618999    -0.30700
H1067       H  0.78865896  0.68721114  0.83891033     0.10300
C1068       C  0.74290694  0.62195201  0.84671360     0.03500
C1069       C  0.73582703  0.60632825  0.85893510    -0.13000
C1070       C  0.72636442  0.61291063  0.87082774    -0.08600
C1071       C  0.72506736  0.63632127  0.87060171     0.07000
C1072       C  0.73228823  0.65195985  0.85842574    -0.13700
S1073       S  0.75409234  0.61246750  0.83140890    -0.30600
H1074       H  0.73691557  0.58846937  0.85911261     0.11200
S1075       S  0.71507035  0.64773977  0.88556350    -0.27700
H1076       H  0.73099236  0.66971790  0.85823863     0.08400
H1077       H  0.81544199  0.71790622  0.80177280     0.26900
H1078       H  0.75212899  0.58945238  0.83721471     0.21700
H1079       H  0.72630276  0.63893383  0.89561290     0.27000
H1080       H  0.69094208  0.62902048  0.83972252     0.15800
C1081       C  0.75839990  0.44480589  0.95030009    -0.11500
C1082       C  0.78332440  0.46204157  0.95674392     0.15100
C1083       C  0.79458910  0.49013292  0.95626935     0.02000
C1084       C  0.78027174  0.50021305  0.94971547    -0.15800
C1085       C  0.75495858  0.48287705  0.94359845    -0.10600
C1086       C  0.74423659  0.45487114  0.94366287     0.08700
C1087       C  0.79660398  0.44982231  0.96403624     0.09700
S1088       S  0.82654408  0.51409393  0.96421778    -0.25000
H1089       H  0.78861080  0.52170621  0.94972310     0.20000
S1090       S  0.71288877  0.43094001  0.93521662    -0.30700
H1091       H  0.74987396  0.42327936  0.95048663     0.10300
C1092       C  0.79437238  0.44571721  0.97862775     0.03500
C1093       C  0.80664532  0.43332537  0.98503784    -0.13000
C1094       C  0.82119113  0.42493594  0.97715744    -0.08600
C1095       C  0.82251416  0.42830573  0.96242305     0.07000
C1096       C  0.81046173  0.44089409  0.95608242    -0.13700
S1097       S  0.77579068  0.45617632  0.98905508    -0.30600
H1098       H  0.80533886  0.43064131  0.99628518     0.11200
S1099       S  0.83806097  0.41589436  0.95101935    -0.27700
H1100       H  0.81155742  0.44343820  0.94480873     0.08400
H1101       H  0.71543155  0.44812183  0.92423647     0.26900
H1102       H  0.77926991  0.44695616  0.00200629     0.21700
H1103       H  0.82921421  0.39212493  0.95866974     0.27000
H1104       H  0.83782323  0.49812360  0.96373876     0.15800
C1105       C  0.53079424  0.48243397  0.95746911    -0.11500
C1106       C  0.51679694  0.45476047  0.96022466     0.15100
C1107       C  0.52833470  0.43980862  0.95640140     0.02000
C1108       C  0.55363869  0.45286499  0.95001052    -0.15800
C1109       C  0.56795834  0.48065879  0.94734518    -0.10600
C1110       C  0.55626788  0.49560610  0.95109015     0.08700
C1111       C  0.49006639  0.44205890  0.96695391     0.09700
S1112       S  0.51178711  0.40402850  0.95920525    -0.25000
H1113       H  0.56226542  0.44113746  0.94710126     0.20000
S1114       S  0.57412763  0.53160431  0.94871248    -0.30700
H1115       H  0.52179008  0.49372918  0.96052251     0.10300
C1116       C  0.48746781  0.44206931  0.98161737     0.03500
C1117       C  0.46171235  0.42983378  0.98757645    -0.13000
C1118       C  0.43846391  0.41775685  0.97914435    -0.08600
C1119       C  0.44124929  0.41724765  0.96443075     0.07000
C1120       C  0.46697131  0.42964377  0.95851734    -0.13700
S1121       S  0.51699206  0.45749184  0.99270468    -0.30600
H1122       H  0.45969133  0.43014242  0.99883343     0.11200
S1123       S  0.41290712  0.40017181  0.95265808    -0.27700
H1124       H  0.46902941  0.42931097  0.94724996     0.08400
H1125       H  0.55271696  0.53482863  0.95231541     0.26900
H1126       H  0.50338454  0.45288531  0.00551481     0.21700
H1127       H  0.39722184  0.37837612  0.96169646     0.27000
H1128       H  0.49673622  0.40249055  0.97099436     0.15800
C1129       C  0.19949898  0.30429949  0.04221456    -0.11500
C1130       C  0.21439600  0.33058820  0.03697985     0.15100
C1131       C  0.20315888  0.34672888  0.03736787     0.02000
C1132       C  0.17738654  0.33627729  0.04297006    -0.15800
C1133       C  0.16243164  0.31001104  0.04837370    -0.10600
C1134       C  0.17361311  0.29372221  0.04771003     0.08700
C1135       C  0.24077622  0.33993854  0.03032535     0.09700
S1136       S  0.22064674  0.38078311  0.03088398    -0.25000
H1137       H  0.16920863  0.34906027  0.04338925     0.20000
S1138       S  0.15541707  0.25880873  0.05273439    -0.30700
H1139       H  0.20782349  0.29164818  0.04161907     0.10300
C1140       C  0.26418634  0.34858966  0.03835109     0.03500
C1141       C  0.28879650  0.35760514  0.03155570    -0.13000
C1142       C  0.29049325  0.35804402  0.01684937    -0.08600
C1143       C  0.26666649  0.34842506  0.00884210     0.07000
C1144       C  0.24219237  0.33974500  0.01569009    -0.13700
S1145       S  0.26280158  0.34889592  0.05724042    -0.30600
H1146       H  0.30690816  0.36486938  0.03772664     0.11200
S1147       S  0.26664893  0.34545241  0.98997734    -0.27700
H1148       H  0.22390295  0.33243472  0.00966472     0.08400
H1149       H  0.13031539  0.25333345  0.04784250     0.26900
H1150       H  0.28978152  0.35698186  0.05966136     0.21700
H1151       H  0.23972028  0.33770269  0.98772059     0.27000
H1152       H  0.24682400  0.38675194  0.03370833     0.15800
C1153       C  0.92895410  0.34635041  0.02108582    -0.11500
C1154       C  0.93427548  0.35178370  0.03541361     0.15100
C1155       C  0.92470194  0.36634274  0.04242057     0.02000
C1156       C  0.91014301  0.37515716  0.03490947    -0.15800
C1157       C  0.90487236  0.36975887  0.02052756    -0.10600
C1158       C  0.91419512  0.35486902  0.01364123     0.08700
C1159       C  0.95011258  0.34211260  0.04254254     0.09700
S1160       S  0.93090587  0.37492224  0.06076680    -0.25000
H1161       H  0.90314260  0.38659597  0.04029553     0.20000
S1162       S  0.90688214  0.34499762  0.99552898    -0.30700
H1163       H  0.93606615  0.33500758  0.01569503     0.10300
C1164       C  0.93768421  0.31573754  0.04783243     0.03500
C1165       C  0.95361222  0.30675160  0.05365864    -0.13000
C1166       C  0.98183020  0.32355960  0.05422196    -0.08600
C1167       C  0.99407769  0.35033575  0.04929611     0.07000
C1168       C  0.97815511  0.35914628  0.04337937    -0.13700
S1169       S  0.90152356  0.29351941  0.04702936    -0.30600
H1170       H  0.94411116  0.28631571  0.05746263     0.11200
S1171       S  0.02968739  0.37467277  0.05075934    -0.27700
H1172       H  0.98768798  0.37951448  0.03942975     0.08400
H1173       H  0.88047768  0.33968214  0.99600742     0.26900
H1174       H  0.90018888  0.27149892  0.05374277     0.21700
H1175       H  0.03271735  0.36530722  0.06377011     0.27000
H1176       H  0.93344681  0.35341159  0.06493025     0.15800
C1177       C  0.75547044  0.02414171  0.82613784    -0.11500
C1178       C  0.73250467  0.02582234  0.82524046     0.15100
C1179       C  0.72011316  0.02264866  0.81209328     0.02000
C1180       C  0.73117551  0.01841312  0.80014558    -0.15800
C1181       C  0.75438122  0.01702465  0.80091822    -0.10600
C1182       C  0.76673445  0.02013974  0.81415015     0.08700
C1183       C  0.72342137  0.03347532  0.83787633     0.09700
S1184       S  0.69030060  0.02408324  0.80984645    -0.25000
H1185       H  0.72131921  0.01588656  0.79014400     0.20000
S1186       S  0.79796733  0.02145619  0.81639567    -0.30700
H1187       H  0.76534408  0.02711894  0.83618169     0.10300
C1188       C  0.70921286  0.01505380  0.84872910     0.03500
C1189       C  0.70032711  0.02319093  0.86025853    -0.13000
C1190       C  0.70543009  0.04943967  0.86117554    -0.08600
C1191       C  0.71938536  0.06767847  0.85010709     0.07000
C1192       C  0.72849793  0.05961201  0.83874116    -0.13700
S1193       S  0.70188214  0.98106131  0.84771238    -0.30600
H1194       H  0.68963105  0.00915392  0.86867883     0.11200
S1195       S  0.72484956  0.10092642  0.84932210    -0.27700
H1196       H  0.73910623  0.07365052  0.83028628     0.08400
H1197       H  0.80971743  0.03601429  0.80401971     0.26900
H1198       H  0.68859908  0.97232000  0.86066863     0.21700
H1199       H  0.69982563  0.09346191  0.85521812     0.27000
H1200       H  0.67943761  0.01413921  0.82318340     0.15800
C1201       C  0.81618999  0.29369575  0.95873131    -0.11500
C1202       C  0.79080683  0.27417711  0.96389391     0.15100
C1203       C  0.78068697  0.28009089  0.97582027     0.02000
C1204       C  0.79638804  0.30494318  0.98251623    -0.15800
C1205       C  0.82203742  0.32468925  0.97748545    -0.10600
C1206       C  0.83186966  0.31873498  0.96529865     0.08700
C1207       C  0.77626012  0.24719930  0.95726662     0.09700
S1208       S  0.74771829  0.25691650  0.98291340    -0.25000
H1209       H  0.78812864  0.30892474  0.99167105     0.20000
S1210       S  0.86420406  0.34154837  0.95753875    -0.30700
H1211       H  0.82414032  0.28911078  0.94964666     0.10300
C1212       C  0.76677721  0.24328421  0.94334059     0.03500
C1213       C  0.75306857  0.21726482  0.93761454    -0.13000
C1214       C  0.74842882  0.19508700  0.94557768    -0.08600
C1215       C  0.75859012  0.19920252  0.95938353     0.07000
C1216       C  0.77225451  0.22511792  0.96507704    -0.13700
S1217       S  0.77079530  0.27110070  0.93311974    -0.30600
H1218       H  0.74508487  0.21399484  0.92706593     0.11200
S1219       S  0.75549579  0.17242026  0.97012164    -0.27700
H1220       H  0.78001677  0.22817133  0.97567910     0.08400
H1221       H  0.87839499  0.34536970  0.97006638     0.26900
H1222       H  0.75990265  0.25672571  0.92057142     0.21700
H1223       H  0.75677597  0.15745110  0.95897490     0.27000
H1224       H  0.73555370  0.24480389  0.97005833     0.15800
C1225       C  0.47861653  0.95807569  0.97889104    -0.11500
C1226       C  0.47771688  0.95966804  0.96428204     0.15100
C1227       C  0.45258670  0.94609423  0.95733976     0.02000
C1228       C  0.42892478  0.93127424  0.96519264    -0.15800
C1229       C  0.42976120  0.93006199  0.97987167    -0.10600
C1230       C  0.45504961  0.94325897  0.98672886     0.08700
C1231       C  0.50356320  0.97508135  0.95672500     0.09700
S1232       S  0.44929325  0.94690150  0.93857898    -0.25000
H1233       H  0.40966437  0.92123533  0.95982766     0.20000
S1234       S  0.45876805  0.94092783  0.00533613    -0.30700
H1235       H  0.49793584  0.96812154  0.98420606     0.10300
C1236       C  0.51696326  0.00320462  0.95541354     0.03500
C1237       C  0.54268262  0.01746155  0.94939964    -0.13000
C1238       C  0.55528394  0.00414265  0.94462073    -0.08600
C1239       C  0.54160622  0.97583535  0.94587467     0.07000
C1240       C  0.51582708  0.96162928  0.95178579    -0.13700
S1241       S  0.50119206  0.02084139  0.96138500    -0.30600
H1242       H  0.55304122  0.03910257  0.94838303     0.11200
S1243       S  0.55651019  0.95683069  0.94106118    -0.27700
H1244       H  0.50561682  0.94001431  0.95301027     0.08400
H1245       H  0.43765378  0.91383613  0.00636352     0.26900
H1246       H  0.52123638  0.04645380  0.95656439     0.21700
H1247       H  0.58264837  0.97639350  0.94555403     0.27000
H1248       H  0.47315497  0.97180125  0.93625755     0.15800
C1249       C  0.98435433  0.80042196  0.35207560    -0.11500
C1250       C  0.97406456  0.78117487  0.34132464     0.15100
C1251       C  0.97119513  0.75600816  0.34360123     0.02000
C1252       C  0.97940907  0.75096783  0.35639533    -0.15800
C1253       C  0.99029590  0.77044373  0.36706675    -0.10600
C1254       C  0.99215262  0.79522381  0.36495385     0.08700
C1255       C  0.96783718  0.78855892  0.32766056     0.09700
S1256       S  0.95773577  0.72976002  0.33053869    -0.25000
H1257       H  0.97773075  0.73182748  0.35793791     0.20000
S1258       S  0.00341531  0.82064459  0.37836205    -0.30700
H1259       H  0.98630161  0.81965730  0.35040189     0.10300
C1260       C  0.94460113  0.78965412  0.32570954     0.03500
C1261       C  0.94009692  0.79780587  0.31271522    -0.13000
C1262       C  0.95845894  0.80504786  0.30162806    -0.08600
C1263       C  0.98201579  0.80436326  0.30376856     0.07000
C1264       C  0.98619746  0.79574869  0.31665355    -0.13700
S1265       S  0.92037431  0.77996976  0.33965979    -0.30600
H1266       H  0.92196738  0.79812637  0.31110223     0.11200
S1267       S  0.00836373  0.81582631  0.29090634    -0.27700
H1268       H  0.00432924  0.79538860  0.31827198     0.08400
H1269       H  0.99237635  0.80245950  0.38960009     0.26900
H1270       H  0.90339469  0.78650069  0.33269829     0.21700
H1271       H  0.00586894  0.83699756  0.28595643     0.27000
H1272       H  0.94095028  0.73688977  0.32391319     0.15800
C1273       C  0.98334477  0.78427092  0.13937642    -0.11500
C1274       C  0.96940341  0.76516818  0.14990247     0.15100
C1275       C  0.96489973  0.73912779  0.14844353     0.02000
C1276       C  0.97528899  0.73314286  0.13679094    -0.15800
C1277       C  0.98991262  0.75245022  0.12640004    -0.10600
C1278       C  0.99333605  0.77813268  0.12758957     0.08700
C1279       C  0.96135043  0.77357239  0.16264235     0.09700
S1280       S  0.94698281  0.71294916  0.16128205    -0.25000
H1281       H  0.97237071  0.71333213  0.13598303     0.20000
S1282       S  0.00936139  0.80362282  0.11428297    -0.30700
H1283       H  0.98655594  0.80417722  0.14039363     0.10300
C1284       C  0.97730936  0.78143155  0.17482780     0.03500
C1285       C  0.96919340  0.78942701  0.18669004    -0.13000
C1286       C  0.94510891  0.78935520  0.18678967    -0.08600
C1287       C  0.92884462  0.78081000  0.17455121     0.07000
C1288       C  0.93745487  0.77363110  0.16256482    -0.13700
S1289       S  0.00823357  0.78156621  0.17519271    -0.30600
H1290       H  0.98191546  0.79606224  0.19590400     0.11200
S1291       S  0.89615494  0.77674980  0.17370877    -0.27700
H1292       H  0.92499747  0.76717856  0.15322667     0.08400
H1293       H  0.99974197  0.78552227  0.10294533     0.26900
H1294       H  0.01499125  0.78966534  0.18923822     0.21700
H1295       H  0.88866145  0.76634316  0.18734849     0.27000
H1296       H  0.93095666  0.72220843  0.16656377     0.15800
C1297       C  0.95742852  0.19250856  0.34831107    -0.11500
C1298       C  0.96323857  0.17221609  0.34885705     0.15100
C1299       C  0.97664898  0.17033675  0.36066931     0.02000
C1300       C  0.98456736  0.18916390  0.37147474    -0.15800
C1301       C  0.97927597  0.20987262  0.37086213    -0.10600
C1302       C  0.96556625  0.21152867  0.35905469     0.08700
C1303       C  0.95786895  0.15538378  0.33628303     0.09700
S1304       S  0.98459665  0.14466847  0.36246914    -0.25000
H1305       H  0.99496830  0.18759956  0.38047224     0.20000
S1306       S  0.96000016  0.23861920  0.35634450    -0.30700
H1307       H  0.94766941  0.19433575  0.33909528     0.10300
C1308       C  0.93148516  0.13575866  0.33208105     0.03500
C1309       C  0.92755820  0.12110342  0.31972923    -0.13000
C1310       C  0.94952448  0.12589380  0.31149784    -0.08600
C1311       C  0.97596179  0.14495183  0.31603388     0.07000
C1312       C  0.97981015  0.15968666  0.32824958    -0.13700
S1313       S  0.90294469  0.12932566  0.34249274    -0.30600
H1314       H  0.90733192  0.10635037  0.31626804     0.11200
S1315       S  0.00561555  0.15076022  0.30701520    -0.27700
H1316       H  0.00011296  0.17458284  0.33158421     0.08400
H1317       H  0.98541017  0.25874240  0.36144778     0.26900
H1318       H  0.88302416  0.10863989  0.33404211     0.21700
H1319       H  0.99428828  0.12397339  0.30260521     0.27000
H1320       H  0.96294101  0.12508790  0.35436818     0.15800
C1321       C  0.02514105  0.19386747  0.15646352    -0.11500
C1322       C  0.99798385  0.17335509  0.15780887     0.15100
C1323       C  0.97962681  0.16981264  0.14714354     0.02000
C1324       C  0.98875459  0.18691642  0.13548830    -0.15800
C1325       C  0.01598361  0.20744165  0.13406867    -0.10600
C1326       C  0.03426362  0.21109784  0.14486692     0.08700
C1327       C  0.98910872  0.15756631  0.17098013     0.09700
S1328       S  0.94436538  0.14380004  0.14775900    -0.25000
H1329       H  0.97451672  0.18380647  0.12731021     0.20000
S1330       S  0.06896295  0.23847659  0.14509290    -0.30700
H1331       H  0.03917112  0.19707883  0.16478588     0.10300
C1332       C  0.99574743  0.13828188  0.17413427     0.03500
C1333       C  0.98737152  0.12433929  0.18691209    -0.13000
C1334       C  0.97257070  0.12935959  0.19665067    -0.08600
C1335       C  0.96531630  0.14818765  0.19322565     0.07000
C1336       C  0.97396798  0.16228296  0.18057022    -0.13700
S1337       S  0.01446429  0.13111683  0.16178231    -0.30600
H1338       H  0.99271660  0.10975078  0.18943901     0.11200
S1339       S  0.94390138  0.15418898  0.20410975    -0.27700
H1340       H  0.96855775  0.17685662  0.17807020     0.08400
H1341       H  0.06389893  0.25733391  0.13916433     0.26900
H1342       H  0.01617760  0.11228400  0.17010305     0.21700
H1343       H  0.92733667  0.12730066  0.20844671     0.27000
H1344       H  0.94749046  0.12537258  0.15563143     0.15800
C1345       C  0.59382680  0.82197255  0.35657966    -0.11500
C1346       C  0.58779040  0.80385257  0.34554347     0.15100
C1347       C  0.56515839  0.77739013  0.34662091     0.02000
C1348       C  0.54887012  0.76984609  0.35856444    -0.15800
C1349       C  0.55468371  0.78800406  0.36960543    -0.10600
C1350       C  0.57780091  0.81428994  0.36863562     0.08700
C1351       C  0.60520725  0.81323623  0.33296817     0.09700
S1352       S  0.55532314  0.75256244  0.33295918    -0.25000
H1353       H  0.53126621  0.74964927  0.35916412     0.20000
S1354       S  0.58881825  0.83856438  0.38262109    -0.30700
H1355       H  0.61136897  0.84219065  0.35584964     0.10300
C1356       C  0.59916466  0.82388668  0.32134127     0.03500
C1357       C  0.61531660  0.83113068  0.30931979    -0.13000
C1358       C  0.63751277  0.82805285  0.30870278    -0.08600
C1359       C  0.64365048  0.81753384  0.32044877     0.07000
C1360       C  0.62762084  0.81059249  0.33251949    -0.13700
S1361       S  0.57069680  0.82796398  0.32180894    -0.30600
H1362       H  0.61058691  0.83909725  0.30030478     0.11200
S1363       S  0.67032207  0.81071801  0.31980286    -0.27700
H1364       H  0.63191452  0.80219988  0.34150604     0.08400
H1365       H  0.58147265  0.81964988  0.39344099     0.26900
H1366       H  0.57361006  0.83808494  0.30813819     0.21700
H1367       H  0.66569515  0.79855158  0.33304919     0.27000
H1368       H  0.58111812  0.76221917  0.32751454     0.15800
C1369       C  0.56519746  0.72900167  0.15696242    -0.11500
C1370       C  0.58458457  0.75649159  0.15841408     0.15100
C1371       C  0.58764685  0.77430875  0.14757728     0.02000
C1372       C  0.57037143  0.76448895  0.13596491    -0.15800
C1373       C  0.55051177  0.73704657  0.13462263    -0.10600
C1374       C  0.54801701  0.71913003  0.14531244     0.08700
C1375       C  0.60001908  0.76605006  0.17172111     0.09700
S1376       S  0.61318990  0.80972346  0.14790669    -0.25000
H1377       H  0.57274485  0.77837708  0.12777692     0.20000
S1378       S  0.52217029  0.68387572  0.14532655    -0.30700
H1379       H  0.56268299  0.71527004  0.16527489     0.10300
C1380       C  0.59564475  0.78154227  0.18137995     0.03500
C1381       C  0.61083391  0.79038263  0.19377276    -0.13000
C1382       C  0.62984019  0.78346175  0.19698599    -0.08600
C1383       C  0.63303152  0.76661850  0.18762620     0.07000
C1384       C  0.61846611  0.75851615  0.17503145    -0.13700
S1385       S  0.57013766  0.78940342  0.17815989    -0.30600
H1386       H  0.60804537  0.80299374  0.20094919     0.11200
S1387       S  0.65392497  0.75333361  0.19146460    -0.27700
H1388       H  0.62117193  0.74582940  0.16784320     0.08400
H1389       H  0.50197363  0.68748697  0.13986915     0.26900
H1390       H  0.57272900  0.80226089  0.19103036     0.21700
H1391       H  0.64842589  0.75033531  0.20591495     0.27000
H1392       H  0.63167098  0.80755058  0.15631884     0.15800
loop_ 
_geom_bond_atom_site_label_1 
_geom_bond_atom_site_label_2 
_geom_bond_distance 
_geom_bond_site_symmetry_2 
_ccdc_geom_bond_type 
N1            N2   1.322       .  A
N1            C5   1.344       .  A
N1           Cu9   2.071       .  S
N2            C3   1.347       .  A
N2           Cu8   2.084       .  S
C3            C4   1.388       .  A
C3            H6   1.082       .  S
C4            C5   1.383       .  A
C4         C1358   1.483       .  S
C5            H7   1.082       .  S
Cu8          N11   2.084       .  S
Cu9          N19   2.072       .  S
Cu10         N12   2.080       .  S
Cu10         N18   2.080       .  S
N11          N12   1.324       .  A
N11          C15   1.347       .  A
N12          C13   1.346       .  A
C13          C14   1.381       .  A
C13          H16   1.082       .  S
C14          C15   1.383       .  A
C14          C75   1.469       .  S
C15          H17   1.082       .  S
N18          N19   1.321       .  A
N18          C22   1.347       .  A
N19          C20   1.344       .  A
C20          C21   1.385       .  A
C20          H23   1.082       .  S
C21          C22   1.388       .  A
C21        C1382   1.485       .  S
C22          H24   1.082       .  S
N25          N26   1.323       .  A
N25          C29   1.344       .  A
N25         Cu33   2.073       .  S
N26          C27   1.346       .  A
N26         Cu32   2.075       .  S
C27          C28   1.382       .  A
C27          H30   1.082       .  S
C28          C29   1.382       .  A
C28        C1310   1.475       .  S
C29          H31   1.082       .  S
Cu32         N35   2.075       .  S
Cu33         N43   2.074       .  S
Cu34         N36   2.078       .  S
Cu34         N42   2.078       .  S
N35          N36   1.323       .  A
N35          C39   1.347   1_545  A
N36          C37   1.345   1_545  A
C37          C38   1.381       .  A
C37          H40   1.082       .  S
C38          C39   1.382       .  A
C38          C77   1.466       .  S
C39          H41   1.082       .  S
N42          N43   1.321       .  A
N42          C46   1.346       .  A
N43          C44   1.345       .  A
C44          C45   1.386       .  A
C44          H47   1.082       .  S
C45          C46   1.385       .  A
C45        C1334   1.483       .  S
C46          H48   1.082       .  S
N49          N50   1.321       .  A
N49          C53   1.346       .  A
N49         Cu57   2.074       .  S
N50          C51   1.345       .  A
N50         Cu56   2.073       .  S
C51          C52   1.385       .  A
C51          H54   1.082       .  S
C52          C53   1.386       .  A
C52        C1262   1.483       .  S
C53          H55   1.082       .  S
Cu56         N59   2.074       .  S
Cu57         N67   2.074       .  S
Cu58         N60   2.088       .  S
Cu58         N66   2.089       .  S
N59          N60   1.324       .  A
N59          C63   1.344       .  A
N60          C61   1.349       .  A
C61          C62   1.383       .  A
C61          H64   1.082       .  S
C62          C63   1.379       .  A
C62          C73   1.466       .  S
C63          H65   1.082       .  S
N66          N67   1.322       .  A
N66          C70   1.348       .  A
N67          C68   1.343       .  A
C68          C69   1.386       .  A
C68          H71   1.082       .  S
C69          C70   1.391       .  A
C69        C1286   1.491       .  S
C70          H72   1.081       .  S
C73          N74   1.359       .  A
C73          N78   1.357       .  A
N74          C75   1.360       .  A
C75          N76   1.359       .  A
N76          C77   1.358       .  A
C77          N78   1.357       .  A
N79          N80   1.322       .  A
N79          C83   1.346       .  A
N79         Cu87   2.073       .  S
N80          C81   1.345       .  A
N80         Cu86   2.071       .  S
C81          C82   1.383       .  A
C81          H84   1.082       .  S
C82          C83   1.383       .  A
C82        C1214   1.476       .  S
C83          H85   1.082       .  S
Cu86         N89   2.072       .  S
Cu87         N97   2.074       .  S
Cu88         N90   2.081       .  S
Cu88         N96   2.082       .  S
N89          N90   1.323       .  A
N89          C93   1.343       .  A
N90          C91   1.347       .  A
C91          C92   1.386       .  A
C91          H94   1.082       .  S
C92          C93   1.383       .  A
C92        C1238   1.480       .  S
C93          H95   1.082       .  S
N96          N97   1.322       .  A
N96         C100   1.347       .  A
N97          C98   1.344       .  A
C98          C99   1.385       .  A
C98         H101   1.082       .  S
C99         C100   1.386       .  A
C99        C1190   1.484       .  S
C100        H102   1.082       .  S
N103        N104   1.323       .  A
N103        C107   1.348   1_455  A
N103       Cu111   2.087       .  S
N104        C105   1.346       .  A
N104       Cu110   2.082       .  S
C105        C106   1.387   1_455  A
C105        H108   1.082       .  S
C106        C107   1.387       .  A
C106       C1166   1.488       .  S
C107        H109   1.082       .  S
Cu110       N113   2.082       .  S
Cu111       N121   2.087       .  S
Cu112       N114   2.079       .  S
Cu112       N120   2.079       .  S
N113        N114   1.322       .  A
N113        C117   1.346       .  A
N114        C115   1.346       .  A
C115        C116   1.387       .  A
C115        H118   1.081       .  S
C116        C117   1.387       .  A
C116       C1133   1.488       .  S
C117        H119   1.082       .  S
N120        N121   1.323       .  A
N120        C124   1.346       .  A
N121        C122   1.347       .  A
C122        C123   1.387       .  A
C122        H125   1.082   1_455  S
C123        C124   1.386       .  A
C123       C1325   1.487       .  S
C124        H126   1.082       .  S
N127        N128   1.321       .  A
N127        C131   1.348       .  A
N127       Cu135   2.084       .  S
N128        C129   1.342       .  A
N128       Cu134   2.066       .  S
C129        C130   1.384       .  A
C129        H132   1.082       .  S
C130        C131   1.389       .  A
C130       C1109   1.485       .  S
C131        H133   1.081       .  S
Cu134       N137   2.066       .  S
Cu135       N145   2.085       .  S
Cu136       N138   2.084       .  S
Cu136       N144   2.085       .  S
N137        N138   1.322       .  A
N137        C141   1.343       .  A
N138        C139   1.349       .  A
C139        C140   1.386       .  A
C139        H142   1.082       .  S
C140        C141   1.381       .  A
C140       C1085   1.479       .  S
C141        H143   1.082       .  S
N144        N145   1.324       .  A
N144        C148   1.346       .  A
N145        C146   1.346       .  A
C146        C147   1.385       .  A
C146        H149   1.082       .  S
C147        C148   1.384       .  A
C147       C1070   1.482       .  S
C148        H150   1.082       .  S
O151       Cu159   2.009   1_554  S
O151        C161   1.278       .  A
O152       Cu159   2.008       .  S
O152        C162   1.276       .  A
O153       Cu159   2.010       .  S
O153        C163   1.278       .  A
O154       Cu159   2.015   1_554  S
O154        C164   1.278       .  A
O155       Cu160   2.022       .  S
O155        C164   1.279       .  A
O156       Cu160   2.017   1_556  S
O156        C163   1.279       .  A
O157       Cu160   2.009   1_556  S
O157        C162   1.279       .  A
O158       Cu160   2.001       .  S
O158        C161   1.277       .  A
Cu159      Cu160   2.368   1_556  S
C161       C1046   1.475       .  S
C162       C1205   1.493       .  S
C163       C1094   1.486       .  S
C164       C1157   1.483       .  S
O165       Cu173   2.013       .  S
O165        C175   1.278   1_556  A
O166       Cu173   2.010       .  S
O166        C176   1.278       .  A
O167       Cu173   2.004       .  S
O167        C177   1.277   1_556  A
O168       Cu173   2.007       .  S
O168        C178   1.277       .  A
O169       Cu174   2.012   1_556  S
O169        C178   1.279       .  A
O170       Cu174   2.022       .  S
O170        C177   1.280       .  A
O171       Cu174   2.014   1_556  S
O171        C176   1.278       .  A
O172       Cu174   2.014       .  S
O172        C175   1.278       .  A
Cu173      Cu174   2.371   1_556  S
C175        C989   1.482       .  S
C176       C1022   1.480       .  S
C177       C1142   1.487       .  S
C178       C1118   1.481       .  S
N179        N180   1.319   1_655  A
N179        C183   1.346       .  A
N179       Cu187   2.072       .  S
N180        C181   1.341       .  A
N180       Cu186   2.055       .  S
C181        C182   1.381   1_455  A
C181        H184   1.082       .  S
C182        C183   1.387       .  A
C182       C1037   1.477       .  S
C183        H185   1.082       .  S
Cu186       N189   2.055       .  S
Cu187       N197   2.074   1_655  S
Cu188       N190   2.091       .  S
Cu188       N196   2.092       .  S
N189        N190   1.322       .  A
N189        C193   1.339       .  A
N190        C191   1.350       .  A
C191        C192   1.390       .  A
C191        H194   1.082       .  S
C192        C193   1.380       .  A
C192        C974   1.482       .  S
C193        H195   1.082       .  S
N196        N197   1.324       .  A
N196        C200   1.348       .  A
N197        C198   1.344   1_455  A
C198        C199   1.382   1_655  A
C198        H201   1.082       .  S
C199        C200   1.388       .  A
C199       C1277   1.483   1_455  S
C200        H202   1.082       .  S
N203        N204   1.321       .  A
N203        C207   1.348       .  A
N203       Cu211   2.084       .  S
N204        C205   1.343       .  A
N204       Cu210   2.067       .  S
C205        C206   1.384       .  A
C205        H208   1.082       .  S
C206        C207   1.390       .  A
C206        C941   1.486   1_545  S
C207        H209   1.081   1_545  S
Cu210       N213   2.067       .  S
Cu211       N221   2.085       .  S
Cu212       N214   2.082       .  S
Cu212       N220   2.083       .  S
N213        N214   1.322       .  A
N213        C217   1.343       .  A
N214        C215   1.347       .  A
C215        C216   1.387       .  A
C215        H218   1.082       .  S
C216        C217   1.383       .  A
C216       C1013   1.480       .  S
C217        H219   1.082       .  S
N220        N221   1.323       .  A
N220        C224   1.346       .  A
N221        C222   1.345       .  A
C222        C223   1.387       .  A
C222        H225   1.082       .  S
C223        C224   1.387       .  A
C223        C917   1.488       .  S
C224        H226   1.081       .  S
N227        N228   1.322       .  A
N227        C231   1.346       .  A
N227       Cu235   2.080       .  S
N228        C229   1.346       .  A
N228       Cu234   2.079       .  S
C229        C230   1.387       .  A
C229        H232   1.082       .  S
C230        C231   1.386       .  A
C230        C998   1.486       .  S
C231        H233   1.082       .  S
Cu234       N237   2.078       .  S
Cu235       N245   2.080       .  S
Cu236       N238   2.081       .  S
Cu236       N244   2.081       .  S
N237        N238   1.323       .  A
N237        C241   1.344       .  A
N238        C239   1.348       .  A
C239        C240   1.385       .  A
C239        H242   1.082       .  S
C240        C241   1.383       .  A
C240        C902   1.480       .  S
C241        H243   1.082       .  S
N244        N245   1.323       .  A
N244        C248   1.346       .  A
N245        C246   1.346       .  A
C246        C247   1.386       .  A
C246        H249   1.082       .  S
C247        C248   1.385       .  A
C247       C1373   1.484       .  S
C248        H250   1.082       .  S
O251       Cu259   2.000       .  S
O251        C261   1.276       .  A
O252       Cu259   2.001   1_556  S
O252        C262   1.277       .  A
O253       Cu259   2.017   1_556  S
O253        C263   1.279       .  A
O254       Cu259   2.017       .  S
O254        C264   1.278       .  A
O255       Cu260   2.009   1_554  S
O255        C264   1.279       .  A
O256       Cu260   2.010       .  S
O256        C263   1.278       .  A
O257       Cu260   2.015       .  S
O257        C262   1.278       .  A
O258       Cu260   2.010   1_554  S
O258        C261   1.278       .  A
Cu259      Cu260   2.369   1_554  S
C261        C965   1.478       .  S
C262       C1229   1.478       .  S
C263        C950   1.487       .  S
C264        C893   1.492       .  S
N265        N266   1.322       .  A
N265        C269   1.343       .  A
N265       Cu273   2.069       .  S
N266        C267   1.348       .  A
N266       Cu272   2.078   1_455  S
C267        C268   1.386       .  A
C267        H270   1.082       .  S
C268        C269   1.383       .  A
C268        C926   1.478       .  S
C269        H271   1.083   1_565  S
Cu272       N275   2.078       .  S
Cu273       N283   2.069   1_565  S
Cu274       N276   2.078       .  S
Cu274       N282   2.078   1_665  S
N275        N276   1.324       .  A
N275        C279   1.345       .  A
N276        C277   1.346       .  A
C277        C278   1.382       .  A
C277        H280   1.082       .  S
C278        C279   1.381       .  A
C278        C315   1.467       .  S
C279        H281   1.082       .  S
N282        N283   1.322       .  A
N282        C286   1.346       .  A
N283        C284   1.343       .  A
C284        C285   1.384       .  A
C284        H287   1.082       .  S
C285        C286   1.387       .  A
C285        C869   1.481       .  S
C286        H288   1.082       .  S
N289        N290   1.321   1_545  A
N289        C293   1.344       .  A
N289       Cu297   2.073       .  S
N290        C291   1.347       .  A
N290       Cu296   2.077       .  S
C291        C292   1.388   1_565  A
C291        H294   1.081       .  S
C292        C293   1.386       .  A
C292       C1181   1.486       .  S
C293        H295   1.082       .  S
Cu296       N299   2.077       .  S
Cu297       N307   2.073       .  S
Cu298       N300   2.079       .  S
Cu298       N306   2.079   1_565  S
N299        N300   1.324       .  A
N299        C303   1.343       .  A
N300        C301   1.348       .  A
C301        C302   1.382       .  A
C301        H304   1.082       .  S
C302        C303   1.379       .  A
C302        C313   1.463       .  S
C303        H305   1.082       .  S
N306        N307   1.322       .  A
N306        C310   1.346       .  A
N307        C308   1.344       .  A
C308        C309   1.384       .  A
C308        H311   1.082       .  S
C309        C310   1.386       .  A
C309        C854   1.482       .  S
C310        H312   1.082       .  S
C313        N314   1.358       .  A
C313        N318   1.357       .  A
N314        C315   1.359       .  A
C315        N316   1.360       .  A
N316        C317   1.358       .  A
C317        N318   1.357       .  A
C317        C332   1.466       .  S
N319        N320   1.321       .  A
N319        C323   1.344       .  A
N319       Cu327   2.074       .  S
N320        C321   1.347       .  A
N320       Cu326   2.075       .  S
C321        C322   1.386       .  A
C321        H324   1.082       .  S
C322        C323   1.384       .  A
C322        C821   1.480       .  S
C323        H325   1.082       .  S
Cu326       N329   2.075       .  S
Cu327       N337   2.075       .  S
Cu328       N330   2.084       .  S
Cu328       N336   2.084       .  S
N329        N330   1.324       .  A
N329        C333   1.344       .  A
N330        C331   1.348       .  A
C331        C332   1.383       .  A
C331        H334   1.082       .  S
C332        C333   1.380       .  A
C333        H335   1.082       .  S
N336        N337   1.322       .  A
N336        C340   1.348       .  A
N337        C338   1.344       .  A
C338        C339   1.385       .  A
C338        H341   1.082       .  S
C339        C340   1.388       .  A
C339       C1061   1.486       .  S
C340        H342   1.082       .  S
N343        N344   1.320   1_655  A
N343        C347   1.344       .  A
N343       Cu351   2.065       .  S
N344        C345   1.343       .  A
N344       Cu350   2.070       .  S
C345        C346   1.386   1_455  A
C345        H348   1.082       .  S
C346        C347   1.385       .  A
C346        C797   1.481       .  S
C347        H349   1.081       .  S
Cu350       N353   2.071       .  S
Cu351       N361   2.065   1_655  S
Cu352       N354   2.085       .  S
Cu352       N360   2.085       .  S
N353        N354   1.323       .  A
N353        C357   1.344       .  A
N354        C355   1.347       .  A
C355        C356   1.387       .  A
C355        H358   1.082       .  S
C356        C357   1.383       .  A
C356        C782   1.483       .  S
C357        H359   1.082       .  S
N360        N361   1.323       .  A
N360        C364   1.347       .  A
N361        C362   1.343   1_455  A
C362        C363   1.381   1_655  A
C362        H365   1.082       .  S
C363        C364   1.386       .  A
C363       C1253   1.479   1_455  S
C364        H366   1.082       .  S
N367        N368   1.320       .  A
N367        C371   1.347       .  A
N367       Cu375   2.071       .  S
N368        C369   1.341       .  A
N368       Cu374   2.056       .  S
C369        C370   1.381       .  A
C369        H372   1.082       .  S
C370        C371   1.387       .  A
C370        C725   1.477       .  S
C371        H373   1.082       .  S
Cu374       N377   2.057       .  S
Cu375       N385   2.072       .  S
Cu376       N378   2.093       .  S
Cu376       N384   2.094       .  S
N377        N378   1.322       .  A
N377        C381   1.341       .  A
N378        C379   1.350       .  A
C379        C380   1.389       .  A
C379        H382   1.082       .  S
C380        C381   1.380       .  A
C380        C758   1.481       .  S
C381        H383   1.082       .  S
N384        N385   1.325       .  A
N384        C388   1.348       .  A
N385        C386   1.344       .  A
C386        C387   1.380       .  A
C386        H389   1.082       .  S
C387        C388   1.386       .  A
C387        C845   1.478       .  S
C388        H390   1.082       .  S
N391        N392   1.321       .  A
N391        C395   1.346       .  A
N391       Cu399   2.077       .  S
N392        C393   1.344       .  A
N392       Cu398   2.068       .  S
C393        C394   1.385       .  A
C393        H396   1.082       .  S
C394        C395   1.386       .  A
C394        C710   1.483       .  S
C395        H397   1.082       .  S
Cu398       N401   2.068       .  S
Cu399       N409   2.078       .  S
Cu400       N402   2.083       .  S
Cu400       N408   2.083       .  S
N401        N402   1.322       .  A
N401        C405   1.342       .  A
N402        C403   1.349       .  A
C403        C404   1.387       .  A
C403        H406   1.082       .  S
C404        C405   1.381       .  A
C404        C686   1.479       .  S
C405        H407   1.082       .  S
N408        N409   1.323       .  A
N408        C412   1.346       .  A
N409        C410   1.345       .  A
C410        C411   1.384       .  A
C410        H413   1.082       .  S
C411        C412   1.386       .  A
C411        C878   1.484       .  S
C412        H414   1.081       .  S
N415        N416   1.323       .  A
N415        C419   1.348       .  A
N415       Cu423   2.087       .  S
N416        C417   1.343       .  A
N416       Cu422   2.070       .  S
C417        C418   1.382       .  A
C417        H420   1.082       .  S
C418        C419   1.388       .  A
C418        C638   1.481       .  S
C419        H421   1.082       .  S
Cu422       N425   2.070       .  S
Cu423       N433   2.087       .  S
Cu424       N426   2.078       .  S
Cu424       N432   2.079       .  S
N425        N426   1.321       .  A
N425        C429   1.345       .  A
N426        C427   1.345       .  A
C427        C428   1.385       .  A
C427        H430   1.082       .  S
C428        C429   1.384       .  A
C428        C662   1.480       .  S
C429        H431   1.082       .  S
N432        N433   1.323       .  A
N432        C436   1.345       .  A
N433        C434   1.347       .  A
C434        C435   1.387       .  A
C434        H437   1.082       .  S
C435        C436   1.384       .  A
C435       C1349   1.485       .  S
C436        H438   1.082       .  S
O439       Cu447   2.018       .  S
O439        C449   1.279       .  A
O440       Cu447   2.012       .  S
O440        C450   1.279       .  A
O441       Cu447   2.003       .  S
O441        C451   1.277       .  A
O442       Cu447   2.004       .  S
O442        C452   1.276       .  A
O443       Cu448   2.024       .  S
O443        C452   1.281       .  A
O444       Cu448   2.021       .  S
O444        C451   1.280       .  A
O445       Cu448   2.010       .  S
O445        C450   1.277       .  A
O446       Cu448   2.009       .  S
O446        C449   1.278       .  A
Cu447      Cu448   2.369       .  S
C449        C749   1.484       .  S
C450        C773   1.479       .  S
C451        C629   1.487       .  S
C452        C701   1.491       .  S
N453        N454   1.321       .  A
N453        C457   1.345       .  A
N453       Cu461   2.067       .  S
N454        C455   1.343       .  A
N454       Cu460   2.070       .  S
C455        C456   1.383       .  A
C455        H458   1.082       .  S
C456        C457   1.383       .  A
C456        C614   1.475       .  S
C457        H459   1.082       .  S
Cu460       N463   2.070       .  S
Cu461       N471   2.068       .  S
Cu462       N464   2.076       .  S
Cu462       N470   2.076       .  S
N463        N464   1.322   1_455  A
N463        C467   1.344       .  A
N464        C465   1.345       .  A
C465        C466   1.386       .  A
C465        H468   1.082       .  S
C466        C467   1.383   1_655  A
C466        C581   1.480       .  S
C467        H469   1.082       .  S
N470        N471   1.322   1_655  A
N470        C474   1.346       .  A
N471        C472   1.342       .  A
C472        C473   1.382   1_455  A
C472        H475   1.082       .  S
C473        C474   1.386       .  A
C473       C1301   1.480       .  S
C474        H476   1.081       .  S
N477        N478   1.321       .  A
N477        C481   1.348       .  A
N477       Cu485   2.084       .  S
N478        C479   1.342       .  A
N478       Cu484   2.067       .  S
C479        C480   1.385       .  A
C479        H482   1.082       .  S
C480        C481   1.391       .  A
C480        C542   1.490       .  S
C481        H483   1.081       .  S
Cu484       N487   2.067       .  S
Cu485       N495   2.084       .  S
Cu486       N488   2.078       .  S
Cu486       N494   2.078       .  S
N487        N488   1.321       .  A
N487        C491   1.344       .  A
N488        C489   1.346       .  A
C489        C490   1.387       .  A
C489        H492   1.082       .  S
C490        C491   1.385       .  A
C490        C566   1.484       .  S
C491        H493   1.081       .  S
N494        N495   1.324       .  A
N494        C498   1.346       .  A
N495        C496   1.346       .  A
C496        C497   1.385       .  A
C496        H499   1.082       .  S
C497        C498   1.384       .  A
C497        C830   1.483       .  S
C498        H500   1.082       .  S
O501       Cu509   2.005       .  S
O501        C511   1.277       .  A
O502       Cu509   2.009       .  S
O502        C512   1.278       .  A
O503       Cu509   2.016       .  S
O503        C513   1.279       .  A
O504       Cu509   2.017       .  S
O504        C514   1.280       .  A
O505       Cu510   2.006       .  S
O505        C514   1.276       .  A
O506       Cu510   2.013       .  S
O506        C513   1.278       .  A
O507       Cu510   2.001       .  S
O507        C512   1.277       .  A
O508       Cu510   2.000       .  S
O508        C511   1.278       .  A
Cu509      Cu510   2.369       .  S
C511        C806   1.478       .  S
C512        C734   1.475       .  S
C513        C533   1.480       .  S
C514        C590   1.496       .  S
O515       Cu523   2.011       .  S
O515        C525   1.279       .  A
O516       Cu523   2.015       .  S
O516        C526   1.278       .  A
O517       Cu523   1.988       .  S
O517        C527   1.275       .  A
O518       Cu523   1.994       .  S
O518        C528   1.277       .  A
O519       Cu524   2.027       .  S
O519        C528   1.280       .  A
O520       Cu524   2.035       .  S
O520        C527   1.282       .  A
O521       Cu524   2.002       .  S
O521        C526   1.276       .  A
O522       Cu524   2.004       .  S
O522        C525   1.276       .  A
Cu523      Cu524   2.370       .  S
C525        C605   1.481       .  S
C526        C557   1.473       .  S
C527        C653   1.485       .  S
C528        C677   1.491       .  S
C529        C530   1.402       .  A
C529        C534   1.403       .  A
C529        H539   1.084       .  S
C530        C531   1.413       .  A
C530        C535   1.482       .  S
C531        C532   1.400       .  A
C531        S536   1.805       .  S
C532        C533   1.404       .  A
C532        H537   1.084       .  S
C533        C534   1.415       .  A
C534        S538   1.803       .  S
C535        C540   1.407       .  A
C535        C544   1.401       .  A
S536        H552   1.405       .  S
S538        H549   1.407       .  S
C540        C541   1.402       .  A
C540        S545   1.807       .  S
C541        C542   1.408       .  A
C541        H546   1.082       .  S
C542        C543   1.418       .  A
C543        C544   1.403       .  A
C543        S547   1.801       .  S
C544        H548   1.084       .  S
S545        H550   1.407       .  S
S547        H551   1.407       .  S
C553        C554   1.401       .  A
C553        C558   1.399       .  A
C553        H563   1.084       .  S
C554        C555   1.413       .  A
C554        C559   1.478       .  S
C555        C556   1.400       .  A
C555        S560   1.805       .  S
C556        C557   1.402       .  A
C556        H561   1.084       .  S
C557        C558   1.413       .  A
C558        S562   1.804       .  S
C559        C564   1.407       .  A
C559        C568   1.400       .  A
S560        H576   1.405       .  S
S562        H573   1.407       .  S
C564        C565   1.403       .  A
C564        S569   1.806       .  S
C565        C566   1.406       .  A
C565        H570   1.082       .  S
C566        C567   1.417       .  A
C567        C568   1.399       .  A
C567        S571   1.802       .  S
C568        H572   1.084       .  S
S569        H574   1.407       .  S
S571        H575   1.407       .  S
C577        C578   1.403       .  A
C577        C582   1.399       .  A
C577        H587   1.084       .  S
C578        C579   1.413       .  A
C578        C583   1.483       .  S
C579        C580   1.400       .  A
C579        S584   1.804       .  S
C580        C581   1.404       .  A
C580        H585   1.084       .  S
C581        C582   1.415       .  A
C582        S586   1.802       .  S
C583        C588   1.408       .  A
C583        C592   1.399       .  A
S584        H600   1.406       .  S
S586        H597   1.407       .  S
C588        C589   1.404       .  A
C588        S593   1.807       .  S
C589        C590   1.411       .  A
C589        H594   1.082       .  S
C590        C591   1.423       .  A
C591        C592   1.399       .  A
C591        S595   1.801       .  S
C592        H596   1.084       .  S
S593        H598   1.406       .  S
S595        H599   1.404       .  S
C601        C602   1.402       .  A
C601        C606   1.400       .  A
C601        H611   1.084       .  S
C602        C603   1.412       .  A
C602        C607   1.481       .  S
C603        C604   1.397       .  A
C603        S608   1.804       .  S
C604        C605   1.404       .  A
C604        H609   1.084       .  S
C605        C606   1.416       .  A
C606        S610   1.798       .  S
C607        C612   1.411       .  A
C607        C616   1.402       .  A
S608        H624   1.406       .  S
S610        H621   1.407       .  S
C612        C613   1.404       .  A
C612        S617   1.807       .  S
C613        C614   1.404       .  A
C613        H618   1.083       .  S
C614        C615   1.413       .  A
C615        C616   1.396       .  A
C615        S619   1.803       .  S
C616        H620   1.084       .  S
S617        H622   1.407       .  S
S619        H623   1.406       .  S
C625        C626   1.402       .  A
C625        C630   1.402       .  A
C625        H635   1.084       .  S
C626        C627   1.412       .  A
C626        C631   1.481       .  S
C627        C628   1.399       .  A
C627        S632   1.805       .  S
C628        C629   1.407       .  A
C628        H633   1.084       .  S
C629        C630   1.417       .  A
C630        S634   1.802       .  S
C631        C636   1.409       .  A
C631        C640   1.402       .  A
S632        H648   1.405       .  S
S634        H645   1.408       .  S
C636        C637   1.404       .  A
C636        S641   1.806       .  S
C637        C638   1.406       .  A
C637        H642   1.083       .  S
C638        C639   1.414       .  A
C639        C640   1.400       .  A
C639        S643   1.802       .  S
C640        H644   1.084       .  S
S641        H646   1.407       .  S
S643        H647   1.406       .  S
C649        C650   1.399       .  A
C649        C654   1.398       .  A
C649        H659   1.084       .  S
C650        C651   1.414       .  A
C650        C655   1.481       .  S
C651        C652   1.403       .  A
C651        S656   1.805       .  S
C652        C653   1.405       .  A
C652        H657   1.084       .  S
C653        C654   1.419       .  A
C654        S658   1.804       .  S
C655        C660   1.408       .  A
C655        C664   1.402       .  A
S656        H672   1.405       .  S
S658        H669   1.407       .  S
C660        C661   1.403       .  A
C660        S665   1.806       .  S
C661        C662   1.405       .  A
C661        H666   1.083       .  S
C662        C663   1.415       .  A
C663        C664   1.400       .  A
C663        S667   1.803       .  S
C664        H668   1.084       .  S
S665        H670   1.407       .  S
S667        H671   1.406       .  S
C673        C674   1.402       .  A
C673        C678   1.402       .  A
C673        H683   1.084       .  S
C674        C675   1.409       .  A
C674        C679   1.479       .  S
C675        C676   1.397       .  A
C675        S680   1.806       .  S
C676        C677   1.409       .  A
C676        H681   1.083       .  S
C677        C678   1.419       .  A
C678        S682   1.800       .  S
C679        C684   1.410       .  A
C679        C688   1.399       .  A
S680        H696   1.405       .  S
S682        H693   1.406       .  S
C684        C685   1.406       .  A
C684        S689   1.806       .  S
C685        C686   1.405       .  A
C685        H690   1.083       .  S
C686        C687   1.415       .  A
C687        C688   1.397       .  A
C687        S691   1.803       .  S
C688        H692   1.084       .  S
S689        H694   1.407       .  S
S691        H695   1.407       .  S
C697        C698   1.401   1_565  A
C697        C702   1.401       .  A
C697        H707   1.084       .  S
C698        C699   1.412       .  A
C698        C703   1.484       .  S
C699        C700   1.401   1_545  A
C699        S704   1.804       .  S
C700        C701   1.407       .  A
C700        H705   1.083       .  S
C701        C702   1.420       .  A
C702        S706   1.802       .  S
C703        C708   1.410       .  A
C703        C712   1.402       .  A
S704        H720   1.406       .  S
S706        H717   1.408       .  S
C708        C709   1.405       .  A
C708        S713   1.806   1_545  S
C709        C710   1.405       .  A
C709        H714   1.083       .  S
C710        C711   1.415       .  A
C711        C712   1.399       .  A
C711        S715   1.803       .  S
C712        H716   1.084       .  S
S713        H718   1.407       .  S
S715        H719   1.407       .  S
C721        C722   1.402       .  A
C721        C726   1.400       .  A
C721        H731   1.084       .  S
C722        C723   1.411       .  A
C722        C727   1.476       .  S
C723        C724   1.396       .  A
C723        S728   1.805       .  S
C724        C725   1.404       .  A
C724        H729   1.084       .  S
C725        C726   1.414       .  A
C726        S730   1.802       .  S
C727        C732   1.410       .  A
C727        C736   1.399       .  A
S728        H744   1.405       .  S
S730        H741   1.406       .  S
C732        C733   1.403       .  A
C732        S737   1.807       .  S
C733        C734   1.403       .  A
C733        H738   1.083       .  S
C734        C735   1.415       .  A
C735        C736   1.396       .  A
C735        S739   1.801       .  S
C736        H740   1.084       .  S
S737        H742   1.407       .  S
S739        H743   1.407       .  S
C745        C746   1.402       .  A
C745        C750   1.401       .  A
C745        H755   1.084       .  S
C746        C747   1.412   1_565  A
C746        C751   1.483   1_565  S
C747        C748   1.401   1_545  A
C747        S752   1.804       .  S
C748        C749   1.406       .  A
C748        H753   1.084   1_565  S
C749        C750   1.416       .  A
C750        S754   1.802       .  S
C751        C756   1.410       .  A
C751        C760   1.401       .  A
S752        H768   1.406       .  S
S754        H765   1.407       .  S
C756        C757   1.406       .  A
C756        S761   1.805   1_545  S
C757        C758   1.404       .  A
C757        H762   1.083       .  S
C758        C759   1.415       .  A
C759        C760   1.399       .  A
C759        S763   1.804       .  S
C760        H764   1.084       .  S
S761        H766   1.407       .  S
S763        H767   1.407       .  S
C769        C770   1.402       .  A
C769        C774   1.398       .  A
C769        H779   1.084       .  S
C770        C771   1.414       .  A
C770        C775   1.479       .  S
C771        C772   1.402       .  A
C771        S776   1.807       .  S
C772        C773   1.405       .  A
C772        H777   1.084       .  S
C773        C774   1.413       .  A
C774        S778   1.803       .  S
C775        C780   1.408       .  A
C775        C784   1.401       .  A
S776        H792   1.403       .  S
S778        H789   1.407       .  S
C780        C781   1.404       .  A
C780        S785   1.806       .  S
C781        C782   1.406       .  A
C781        H786   1.083       .  S
C782        C783   1.416       .  A
C783        C784   1.400       .  A
C783        S787   1.802       .  S
C784        H788   1.084       .  S
S785        H790   1.407       .  S
S787        H791   1.407       .  S
C793        C794   1.400       .  A
C793        C798   1.399       .  A
C793        H803   1.084       .  S
C794        C795   1.410       .  A
C794        C799   1.474       .  S
C795        C796   1.396       .  A
C795        S800   1.805       .  S
C796        C797   1.405       .  A
C796        H801   1.083       .  S
C797        C798   1.417       .  A
C798        S802   1.802       .  S
C799        C804   1.407       .  A
C799        C808   1.400       .  A
S800        H816   1.405       .  S
S802        H813   1.407       .  S
C804        C805   1.400       .  A
C804        S809   1.807       .  S
C805        C806   1.405       .  A
C805        H810   1.083       .  S
C806        C807   1.417       .  A
C807        C808   1.399       .  A
C807        S811   1.803       .  S
C808        H812   1.084       .  S
S809        H814   1.407       .  S
S811        H815   1.408       .  S
C817        C818   1.404       .  A
C817        C822   1.401       .  A
C817        H827   1.084       .  S
C818        C819   1.413       .  A
C818        C823   1.484       .  S
C819        C820   1.400       .  A
C819        S824   1.804       .  S
C820        C821   1.404       .  A
C820        H825   1.084       .  S
C821        C822   1.414       .  A
C822        S826   1.802       .  S
C823        C828   1.411       .  A
C823        C832   1.403       .  A
S824        H840   1.406       .  S
S826        H837   1.406       .  S
C828        C829   1.403       .  A
C828        S833   1.807       .  S
C829        C830   1.405       .  A
C829        H834   1.083       .  S
C830        C831   1.415       .  A
C831        C832   1.400       .  A
C831        S835   1.802       .  S
C832        H836   1.084       .  S
S833        H838   1.407       .  S
S835        H839   1.407       .  S
C841        C842   1.402       .  A
C841        C846   1.400       .  A
C841        H851   1.084       .  S
C842        C843   1.412       .  A
C842        C847   1.479       .  S
C843        C844   1.400       .  A
C843        S848   1.805       .  S
C844        C845   1.403       .  A
C844        H849   1.084       .  S
C845        C846   1.415       .  A
C846        S850   1.803       .  S
C847        C852   1.409       .  A
C847        C856   1.401       .  A
S848        H864   1.405       .  S
S850        H861   1.406       .  S
C852        C853   1.403       .  A
C852        S857   1.806   1_545  S
C853        C854   1.405       .  A
C853        H858   1.082   1_545  S
C854        C855   1.416       .  A
C855        C856   1.400       .  A
C855        S859   1.803       .  S
C856        H860   1.084       .  S
S857        H862   1.407       .  S
S859        H863   1.407       .  S
C865        C866   1.403       .  A
C865        C870   1.400       .  A
C865        H875   1.084       .  S
C866        C867   1.413       .  A
C866        C871   1.482       .  S
C867        C868   1.398       .  A
C867        S872   1.805       .  S
C868        C869   1.405       .  A
C868        H873   1.084       .  S
C869        C870   1.414       .  A
C870        S874   1.802       .  S
C871        C876   1.410       .  A
C871        C880   1.401       .  A
S872        H888   1.405       .  S
S874        H885   1.407       .  S
C876        C877   1.404       .  A
C876        S881   1.807       .  S
C877        C878   1.406       .  A
C877        H882   1.083       .  S
C878        C879   1.416       .  A
C879        C880   1.399       .  A
C879        S883   1.802       .  S
C880        H884   1.084       .  S
S881        H886   1.407       .  S
S883        H887   1.407       .  S
C889        C890   1.401       .  A
C889        C894   1.402       .  A
C889        H899   1.084       .  S
C890        C891   1.411       .  A
C890        C895   1.483       .  S
C891        C892   1.399       .  A
C891        S896   1.805       .  S
C892        C893   1.408       .  A
C892        H897   1.084       .  S
C893        C894   1.419       .  A
C894        S898   1.799       .  S
C895        C900   1.409       .  A
C895        C904   1.403       .  A
S896        H912   1.405       .  S
S898        H909   1.407       .  S
C900        C901   1.402       .  A
C900        S905   1.807       .  S
C901        C902   1.404       .  A
C901        H906   1.083       .  S
C902        C903   1.414       .  A
C903        C904   1.402       .  A
C903        S907   1.803       .  S
C904        H908   1.084       .  S
S905        H910   1.407       .  S
S907        H911   1.406       .  S
C913        C914   1.402       .  A
C913        C918   1.401       .  A
C913        H923   1.084       .  S
C914        C915   1.410   1_545  A
C914        C919   1.481   1_545  S
C915        C916   1.400   1_565  A
C915        S920   1.804       .  S
C916        C917   1.407       .  A
C916        H921   1.083   1_545  S
C917        C918   1.418       .  A
C918        S922   1.802       .  S
C919        C924   1.410   1_565  A
C919        C928   1.401       .  A
S920        H936   1.406       .  S
S922        H933   1.407       .  S
C924        C925   1.405   1_545  A
C924        S929   1.805       .  S
C925        C926   1.404       .  A
C925        H930   1.083       .  S
C926        C927   1.413       .  A
C927        C928   1.399       .  A
C927        S931   1.803       .  S
C928        H932   1.084       .  S
S929        H934   1.407       .  S
S931        H935   1.407       .  S
C937        C938   1.403       .  A
C937        C942   1.402       .  A
C937        H947   1.084       .  S
C938        C939   1.411       .  A
C938        C943   1.484       .  S
C939        C940   1.399       .  A
C939        S944   1.804       .  S
C940        C941   1.406       .  A
C940        H945   1.084   1_565  S
C941        C942   1.416       .  A
C942        S946   1.802       .  S
C943        C948   1.408       .  A
C943        C952   1.402       .  A
S944        H960   1.406       .  S
S946        H957   1.407   1_565  S
C948        C949   1.404       .  A
C948        S953   1.806       .  S
C949        C950   1.408       .  A
C949        H954   1.083       .  S
C950        C951   1.416       .  A
C951        C952   1.401       .  A
C951        S955   1.803       .  S
C952        H956   1.084       .  S
S953        H958   1.407       .  S
S955        H959   1.408       .  S
C961        C962   1.403       .  A
C961        C966   1.399       .  A
C961        H971   1.084       .  S
C962        C963   1.411       .  A
C962        C967   1.479       .  S
C963        C964   1.399       .  A
C963        S968   1.804       .  S
C964        C965   1.405       .  A
C964        H969   1.084       .  S
C965        C966   1.414       .  A
C966        S970   1.804       .  S
C967        C972   1.408       .  A
C967        C976   1.403       .  A
S968        H984   1.406       .  S
S970        H981   1.408       .  S
C972        C973   1.399       .  A
C972        S977   1.808       .  S
C973        C974   1.405       .  A
C973        H978   1.082       .  S
C974        C975   1.415       .  A
C975        C976   1.402       .  A
C975        S979   1.801       .  S
C976        H980   1.084       .  S
S977        H982   1.407       .  S
S979        H983   1.406       .  S
C985        C986   1.404       .  A
C985        C990   1.402       .  A
C985        H995   1.084       .  S
C986        C987   1.413       .  A
C986        C991   1.487       .  S
C987        C988   1.401       .  A
C987        S992   1.804       .  S
C988        C989   1.404       .  A
C988        H993   1.084       .  S
C989        C990   1.415       .  A
C990        S994   1.803       .  S
C991        C996   1.411       .  A
C991       C1000   1.403       .  A
S992       H1008   1.406       .  S
S994       H1005   1.407       .  S
C996        C997   1.405       .  A
C996       S1001   1.807       .  S
C997        C998   1.406       .  A
C997       H1002   1.082       .  S
C998        C999   1.416       .  A
C999       C1000   1.401       .  A
C999       S1003   1.803       .  S
C1000      H1004   1.084       .  S
S1001      H1006   1.407       .  S
S1003      H1007   1.407       .  S
C1009      C1010   1.402       .  A
C1009      C1014   1.400       .  A
C1009      H1019   1.084       .  S
C1010      C1011   1.412       .  A
C1010      C1015   1.481       .  S
C1011      C1012   1.400       .  A
C1011      S1016   1.804       .  S
C1012      C1013   1.404       .  A
C1012      H1017   1.084       .  S
C1013      C1014   1.415       .  A
C1014      S1018   1.803       .  S
C1015      C1020   1.409       .  A
C1015      C1024   1.402       .  A
S1016      H1032   1.405       .  S
S1018      H1029   1.407       .  S
C1020      C1021   1.403       .  A
C1020      S1025   1.807       .  S
C1021      C1022   1.404       .  A
C1021      H1026   1.083       .  S
C1022      C1023   1.415       .  A
C1023      C1024   1.402       .  A
C1023      S1027   1.803       .  S
C1024      H1028   1.084       .  S
S1025      H1030   1.407       .  S
S1027      H1031   1.407       .  S
C1033      C1034   1.401       .  A
C1033      C1038   1.400       .  A
C1033      H1043   1.084       .  S
C1034      C1035   1.411       .  A
C1034      C1039   1.475       .  S
C1035      C1036   1.397       .  A
C1035      S1040   1.805       .  S
C1036      C1037   1.404       .  A
C1036      H1041   1.084       .  S
C1037      C1038   1.415       .  A
C1038      S1042   1.802       .  S
C1039      C1044   1.409       .  A
C1039      C1048   1.399       .  A
S1040      H1056   1.405       .  S
S1042      H1053   1.407       .  S
C1044      C1045   1.402       .  A
C1044      S1049   1.807       .  S
C1045      C1046   1.404       .  A
C1045      H1050   1.083       .  S
C1046      C1047   1.415       .  A
C1047      C1048   1.397       .  A
C1047      S1051   1.803       .  S
C1048      H1052   1.084       .  S
S1049      H1054   1.407       .  S
S1051      H1055   1.406       .  S
C1057      C1058   1.403       .  A
C1057      C1062   1.403       .  A
C1057      H1067   1.084       .  S
C1058      C1059   1.410       .  A
C1058      C1063   1.481       .  S
C1059      C1060   1.398       .  A
C1059      S1064   1.804       .  S
C1060      C1061   1.406       .  A
C1060      H1065   1.083       .  S
C1061      C1062   1.417       .  A
C1062      S1066   1.802       .  S
C1063      C1068   1.409       .  A
C1063      C1072   1.401       .  A
S1064      H1080   1.403       .  S
S1066      H1077   1.407       .  S
C1068      C1069   1.404       .  A
C1068      S1073   1.806       .  S
C1069      C1070   1.405       .  A
C1069      H1074   1.083       .  S
C1070      C1071   1.415       .  A
C1071      C1072   1.401       .  A
C1071      S1075   1.803       .  S
C1072      H1076   1.084       .  S
S1073      H1078   1.407       .  S
S1075      H1079   1.406       .  S
C1081      C1082   1.401       .  A
C1081      C1086   1.398       .  A
C1081      H1091   1.084       .  S
C1082      C1083   1.414       .  A
C1082      C1087   1.481       .  S
C1083      C1084   1.403       .  A
C1083      S1088   1.805       .  S
C1084      C1085   1.404       .  A
C1084      H1089   1.084       .  S
C1085      C1086   1.414       .  A
C1086      S1090   1.803       .  S
C1087      C1092   1.408       .  A
C1087      C1096   1.401       .  A
S1088      H1104   1.404       .  S
S1090      H1101   1.407       .  S
C1092      C1093   1.404       .  A
C1092      S1097   1.806       .  S
C1093      C1094   1.407       .  A
C1093      H1098   1.082       .  S
C1094      C1095   1.417       .  A
C1095      C1096   1.400       .  A
C1095      S1099   1.803       .  S
C1096      H1100   1.084       .  S
S1097      H1102   1.407   1_556  S
S1099      H1103   1.408       .  S
C1105      C1106   1.402       .  A
C1105      C1110   1.405       .  A
C1105      H1115   1.083       .  S
C1106      C1107   1.410       .  A
C1106      C1111   1.478       .  S
C1107      C1108   1.398       .  A
C1107      S1112   1.805       .  S
C1108      C1109   1.406       .  A
C1108      H1113   1.084       .  S
C1109      C1110   1.415       .  A
C1110      S1114   1.806       .  S
C1111      C1116   1.408       .  A
C1111      C1120   1.400       .  A
S1112      H1128   1.404       .  S
S1114      H1125   1.407       .  S
C1116      C1117   1.403       .  A
C1116      S1121   1.806       .  S
C1117      C1118   1.406       .  A
C1117      H1122   1.083       .  S
C1118      C1119   1.416       .  A
C1119      C1120   1.399       .  A
C1119      S1123   1.803       .  S
C1120      H1124   1.084       .  S
S1121      H1126   1.407   1_556  S
S1123      H1127   1.407       .  S
C1129      C1130   1.401       .  A
C1129      C1134   1.401       .  A
C1129      H1139   1.084       .  S
C1130      C1131   1.411       .  A
C1130      C1135   1.482       .  S
C1131      C1132   1.401       .  A
C1131      S1136   1.804       .  S
C1132      C1133   1.406       .  A
C1132      H1137   1.083       .  S
C1133      C1134   1.417       .  A
C1134      S1138   1.802       .  S
C1135      C1140   1.408       .  A
C1135      C1144   1.400       .  A
S1136      H1152   1.405       .  S
S1138      H1149   1.407       .  S
C1140      C1141   1.405       .  A
C1140      S1145   1.806       .  S
C1141      C1142   1.407       .  A
C1141      H1146   1.083       .  S
C1142      C1143   1.418       .  A
C1143      C1144   1.404       .  A
C1143      S1147   1.809   1_554  S
C1144      H1148   1.083       .  S
S1145      H1150   1.407       .  S
S1147      H1151   1.407       .  S
C1153      C1154   1.401       .  A
C1153      C1158   1.399       .  A
C1153      H1163   1.084       .  S
C1154      C1155   1.414       .  A
C1154      C1159   1.484       .  S
C1155      C1156   1.405       .  A
C1155      S1160   1.804       .  S
C1156      C1157   1.405       .  A
C1156      H1161   1.084       .  S
C1157      C1158   1.414       .  A
C1158      S1162   1.800   1_554  S
C1159      C1164   1.409       .  A
C1159      C1168   1.400       .  A
S1160      H1176   1.404       .  S
S1162      H1173   1.407       .  S
C1164      C1165   1.406       .  A
C1164      S1169   1.806       .  S
C1165      C1166   1.406       .  A
C1165      H1170   1.083       .  S
C1166      C1167   1.417       .  A
C1167      C1168   1.402       .  A
C1167      S1171   1.802   1_655  S
C1168      H1172   1.084       .  S
S1169      H1174   1.407       .  S
S1171      H1175   1.407       .  S
C1177      C1178   1.402       .  A
C1177      C1182   1.402       .  A
C1177      H1187   1.084       .  S
C1178      C1179   1.411       .  A
C1178      C1183   1.481       .  S
C1179      C1180   1.398       .  A
C1179      S1184   1.804       .  S
C1180      C1181   1.406       .  A
C1180      H1185   1.083       .  S
C1181      C1182   1.417       .  A
C1182      S1186   1.802       .  S
C1183      C1188   1.408       .  A
C1183      C1192   1.401       .  A
S1184      H1200   1.406       .  S
S1186      H1197   1.407       .  S
C1188      C1189   1.405       .  A
C1188      S1193   1.806   1_545  S
C1189      C1190   1.407       .  A
C1189      H1194   1.082       .  S
C1190      C1191   1.416       .  A
C1191      C1192   1.398       .  A
C1191      S1195   1.802       .  S
C1192      H1196   1.084       .  S
S1193      H1198   1.407       .  S
S1195      H1199   1.407       .  S
C1201      C1202   1.401       .  A
C1201      C1206   1.400       .  A
C1201      H1211   1.084       .  S
C1202      C1203   1.410       .  A
C1202      C1207   1.482       .  S
C1203      C1204   1.398       .  A
C1203      S1208   1.804       .  S
C1204      C1205   1.409       .  A
C1204      H1209   1.083       .  S
C1205      C1206   1.422       .  A
C1206      S1210   1.801       .  S
C1207      C1212   1.411       .  A
C1207      C1216   1.403       .  A
S1208      H1224   1.406       .  S
S1210      H1221   1.403       .  S
C1212      C1213   1.404       .  A
C1212      S1217   1.807       .  S
C1213      C1214   1.404       .  A
C1213      H1218   1.083       .  S
C1214      C1215   1.412       .  A
C1215      C1216   1.398       .  A
C1215      S1219   1.803       .  S
C1216      H1220   1.084       .  S
S1217      H1222   1.407       .  S
S1219      H1223   1.406       .  S
C1225      C1226   1.401       .  A
C1225      C1230   1.397       .  A
C1225      H1235   1.084       .  S
C1226      C1227   1.412       .  A
C1226      C1231   1.477       .  S
C1227      C1228   1.402       .  A
C1227      S1232   1.804       .  S
C1228      C1229   1.405       .  A
C1228      H1233   1.084       .  S
C1229      C1230   1.415       .  A
C1230      S1234   1.803   1_556  S
C1231      C1236   1.407   1_565  A
C1231      C1240   1.401       .  A
S1232      H1248   1.404       .  S
S1234      H1245   1.407       .  S
C1236      C1237   1.402       .  A
C1236      S1241   1.806       .  S
C1237      C1238   1.405       .  A
C1237      H1242   1.083       .  S
C1238      C1239   1.415   1_545  A
C1239      C1240   1.400       .  A
C1239      S1243   1.802       .  S
C1240      H1244   1.084       .  S
S1241      H1246   1.407       .  S
S1243      H1247   1.407       .  S
C1249      C1250   1.402       .  A
C1249      C1254   1.400       .  A
C1249      H1259   1.084       .  S
C1250      C1251   1.411       .  A
C1250      C1255   1.479       .  S
C1251      C1252   1.400       .  A
C1251      S1256   1.804       .  S
C1252      C1253   1.405       .  A
C1252      H1257   1.084       .  S
C1253      C1254   1.413       .  A
C1254      S1258   1.802   1_655  S
C1255      C1260   1.408       .  A
C1255      C1264   1.401       .  A
S1256      H1272   1.405       .  S
S1258      H1269   1.407   1_455  S
C1260      C1261   1.404       .  A
C1260      S1265   1.806       .  S
C1261      C1262   1.406       .  A
C1261      H1266   1.083       .  S
C1262      C1263   1.416       .  A
C1263      C1264   1.400       .  A
C1263      S1267   1.802   1_655  S
C1264      H1268   1.084   1_655  S
S1265      H1270   1.407       .  S
S1267      H1271   1.407       .  S
C1273      C1274   1.402       .  A
C1273      C1278   1.401       .  A
C1273      H1283   1.084       .  S
C1274      C1275   1.412       .  A
C1274      C1279   1.481       .  S
C1275      C1276   1.400       .  A
C1275      S1280   1.805       .  S
C1276      C1277   1.405       .  A
C1276      H1281   1.084       .  S
C1277      C1278   1.415       .  A
C1278      S1282   1.802   1_655  S
C1279      C1284   1.406       .  A
C1279      C1288   1.401       .  A
S1280      H1296   1.404       .  S
S1282      H1293   1.407   1_455  S
C1284      C1285   1.402       .  A
C1284      S1289   1.807   1_655  S
C1285      C1286   1.408       .  A
C1285      H1290   1.082       .  S
C1286      C1287   1.419       .  A
C1287      C1288   1.403       .  A
C1287      S1291   1.801       .  S
C1288      H1292   1.084       .  S
S1289      H1294   1.407       .  S
S1291      H1295   1.407       .  S
C1297      C1298   1.402       .  A
C1297      C1302   1.399       .  A
C1297      H1307   1.084       .  S
C1298      C1299   1.410       .  A
C1298      C1303   1.477       .  S
C1299      C1300   1.397       .  A
C1299      S1304   1.804       .  S
C1300      C1301   1.405       .  A
C1300      H1305   1.084       .  S
C1301      C1302   1.416       .  A
C1302      S1306   1.802       .  S
C1303      C1308   1.409       .  A
C1303      C1312   1.401       .  A
S1304      H1320   1.406       .  S
S1306      H1317   1.407       .  S
C1308      C1309   1.404       .  A
C1308      S1313   1.806       .  S
C1309      C1310   1.404       .  A
C1309      H1314   1.083       .  S
C1310      C1311   1.413       .  A
C1311      C1312   1.396       .  A
C1311      S1315   1.803   1_655  S
C1312      H1316   1.084   1_655  S
S1313      H1318   1.407       .  S
S1315      H1319   1.407   1_455  S
C1321      C1322   1.402   1_455  A
C1321      C1326   1.401       .  A
C1321      H1331   1.084       .  S
C1322      C1323   1.412       .  A
C1322      C1327   1.484       .  S
C1323      C1324   1.402       .  A
C1323      S1328   1.804       .  S
C1324      C1325   1.406   1_655  A
C1324      H1329   1.084       .  S
C1325      C1326   1.417       .  A
C1326      S1330   1.802       .  S
C1327      C1332   1.410       .  A
C1327      C1336   1.401       .  A
S1328      H1344   1.406       .  S
S1330      H1341   1.407       .  S
C1332      C1333   1.405       .  A
C1332      S1337   1.806   1_655  S
C1333      C1334   1.406       .  A
C1333      H1338   1.083       .  S
C1334      C1335   1.416       .  A
C1335      C1336   1.399       .  A
C1335      S1339   1.802       .  S
C1336      H1340   1.084       .  S
S1337      H1342   1.407       .  S
S1339      H1343   1.407       .  S
C1345      C1346   1.401       .  A
C1345      C1350   1.402       .  A
C1345      H1355   1.084       .  S
C1346      C1347   1.413       .  A
C1346      C1351   1.481       .  S
C1347      C1348   1.401       .  A
C1347      S1352   1.805       .  S
C1348      C1349   1.405       .  A
C1348      H1353   1.084       .  S
C1349      C1350   1.416       .  A
C1350      S1354   1.802       .  S
C1351      C1356   1.407       .  A
C1351      C1360   1.402       .  A
S1352      H1368   1.403       .  S
S1354      H1365   1.407       .  S
C1356      C1357   1.404       .  A
C1356      S1361   1.806       .  S
C1357      C1358   1.405       .  A
C1357      H1362   1.083       .  S
C1358      C1359   1.415       .  A
C1359      C1360   1.405       .  A
C1359      S1363   1.807       .  S
C1360      H1364   1.083       .  S
S1361      H1366   1.407       .  S
S1363      H1367   1.407       .  S
C1369      C1370   1.402       .  A
C1369      C1374   1.401       .  A
C1369      H1379   1.084       .  S
C1370      C1371   1.413       .  A
C1370      C1375   1.484       .  S
C1371      C1372   1.401       .  A
C1371      S1376   1.805       .  S
C1372      C1373   1.405       .  A
C1372      H1377   1.084       .  S
C1373      C1374   1.416       .  A
C1374      S1378   1.802       .  S
C1375      C1380   1.410       .  A
C1375      C1384   1.403       .  A
S1376      H1392   1.406       .  S
S1378      H1389   1.407       .  S
C1380      C1381   1.402       .  A
C1380      S1385   1.807       .  S
C1381      C1382   1.406       .  A
C1381      H1386   1.082       .  S
C1382      C1383   1.416       .  A
C1383      C1384   1.402       .  A
C1383      S1387   1.802       .  S
C1384      H1388   1.084       .  S
S1385      H1390   1.407       .  S
S1387      H1391   1.407       .  S
