geometry optimzed in LAMMPS
_audit_creation_date              2020-12-01 
_audit_creation_method            'lammps2cif' 
_symmetry_space_group_name_H-M    'P1' 
_symmetry_Int_Tables_number       1 
_symmetry_cell_setting            triclinic 
loop_ 
_symmetry_equiv_pos_as_xyz 
  x,y,z 
_cell_length_a                    26.96167355 
_cell_length_b                    26.59642753935308 
_cell_length_c                    32.369757590698136 
_cell_angle_alpha                 89.99981562008615 
_cell_angle_beta                  89.9997709567689 
_cell_angle_gamma                 113.16803869603079 
loop_ 
_atom_site_label 
_atom_site_type_symbol 
_atom_site_fract_x 
_atom_site_fract_y 
_atom_site_fract_z 
_atom_site_charge 
O1          O  0.45204343  0.25304283  0.40962280    -0.81900
O2          O  0.26793268  0.12241868  0.29224466    -0.66600
O3          O  0.34766656  0.21856673  0.37883336    -1.13200
C4          C  0.32488650  0.04986596  0.44424817     1.05000
O5          O  0.20940877  0.07596704  0.33976694    -0.79800
O6          O  0.22106205  0.08208545  0.42149163    -0.67400
Ni7        Ni  0.41503113  0.27671395  0.36820130     1.34900
C8          C  0.23702452  0.12430225  0.44423157     0.83700
O9          O  0.30979291  0.23427858  0.29969184    -0.80300
O10         O  0.38196425  0.30326681  0.32646237    -0.90600
C11         C  0.22302126  0.08494630  0.30216031     0.83300
O12         O  0.44354624  0.24394660  0.32721547    -0.68800
O13         O  0.28652541  0.02668544  0.41874443    -0.88100
C14         C  0.42198278  0.20218211  0.30456104     0.84100
C15         C  0.34291077  0.28466279  0.30080786     1.05700
H16         H  0.33824523  0.10260975  0.35714072     0.37500
O17         O  0.31306440  0.11624001  0.36900817    -1.10800
O18         O  0.28522146  0.16021281  0.44324572    -0.67200
Ni19       Ni  0.34938194  0.16140463  0.41418241     1.26300
O20         O  0.37189367  0.17245737  0.30494183    -0.67700
O21         O  0.35112123  0.10158301  0.44679424    -0.79900
C22         C  0.43685644  0.24602285  0.44696181     0.83500
O23         O  0.39049137  0.21094490  0.45622351    -0.67100
Ni24       Ni  0.24987093  0.05325267  0.37883526     1.27400
Ni25       Ni  0.30973543  0.17321354  0.33375912     1.26100
H26         H  0.32441446  0.23447419  0.39091593     0.38000
C27         C  0.05668518  0.02879983  0.49793277     0.02100
C28         C  0.00589588  0.03235640  0.99809271    -0.14000
C29         C  0.45862842  0.48466191  0.99988291    -0.00400
C30         C  0.46248723  0.43380388  0.50134818    -0.12600
C31         C  0.01255965  0.42962675  0.50093266     0.02100
C32         C  0.05983382  0.47722571  0.49937576    -0.12000
H33         H  0.00322316  0.07194298  0.99698696     0.07700
H34         H  0.42594506  0.39682276  0.00239888     0.05200
H35         H  0.09874666  0.47415978  0.49902131     0.05100
C36         C  0.31365586  0.44331724  0.02117583     0.79200
N37         N  0.30039058  0.97606465  0.99511779    -0.79100
C38         C  0.33937777  0.01456757  0.47224913     0.81600
N39         N  0.39151853  0.01956796  0.47495423    -0.79000
C40         C  0.40444129  0.48574776  0.00024700     0.81700
N41         N  0.36551972  0.44857024  0.02367038    -0.80800
C42         C  0.15663858  0.16826706  0.02109823     0.79200
N43         N  0.19979391  0.17152342  0.49689192    -0.79100
C44         C  0.19501953  0.12726702  0.47262993     0.81600
N45         N  0.14853769  0.08157406  0.47355705    -0.79000
C46         C  0.10632990  0.07883104  0.49689167     0.81700
N47         N  0.11065214  0.12211205  0.02018330    -0.80800
C48         C  0.47164025  0.28346358  0.47768675     0.79200
N49         N  0.47650772  0.33592506  0.47650576    -0.79100
C50         C  0.01324167  0.37466273  0.50022878     0.81600
N51         N  0.04651214  0.36086522  0.02505491    -0.79000
C52         C  0.04161072  0.30793304  0.02678747     0.81700
N53         N  0.00399195  0.26907995  0.50308719    -0.80800
O54         O  0.04635959  0.24199610  0.15962302    -0.81900
O55         O  0.23047031  0.37261857  0.04224408    -0.66600
O56         O  0.15073597  0.27647065  0.12883320    -1.13200
C57         C  0.17351750  0.44517133  0.19424833     1.05000
O58         O  0.28899387  0.41906894  0.08976631    -0.79800
O59         O  0.27734107  0.41295209  0.17149102    -0.67400
Ni60       Ni  0.08337133  0.21832392  0.11820167     1.34900
C61         C  0.26137879  0.37073480  0.19423070     0.83700
O62         O  0.18860976  0.26075867  0.04969183    -0.80300
O63         O  0.11643821  0.19177045  0.07646302    -0.90600
C64         C  0.27538169  0.41009047  0.05215973     0.83300
O65         O  0.05485662  0.25109094  0.07721531    -0.68800
O66         O  0.21187807  0.46835195  0.16874377    -0.88100
C67         C  0.07642020  0.29285543  0.05456057     0.84100
C68         C  0.15549188  0.21037444  0.05080829     1.05700
H69         H  0.16015794  0.39242770  0.10714071     0.37500
O70         O  0.18533863  0.37879734  0.11900788    -1.10800
O71         O  0.21318197  0.33482388  0.19324483    -0.67400
Ni72       Ni  0.14902129  0.33363264  0.16418243     1.26300
O73         O  0.12650933  0.32258042  0.05494148    -0.67700
O74         O  0.14728281  0.39345421  0.19679469    -0.79900
C75         C  0.06154650  0.24901487  0.19696194     0.83500
O76         O  0.10791174  0.28409203  0.20622359    -0.67100
Ni77       Ni  0.24853225  0.44178435  0.12883445     1.27400
Ni78       Ni  0.18866729  0.32182378  0.08375877     1.26100
H79         H  0.17398770  0.26056293  0.14091554     0.38000
C80         C  0.44171797  0.46623748  0.24793153     0.02100
C81         C  0.43856931  0.01781144  0.24937541    -0.14000
C82         C  0.48584332  0.06541042  0.25093324    -0.00400
C83         C  0.03591585  0.06123334  0.25134893    -0.12600
C84         C  0.03977489  0.01037551  0.24988296     0.02100
C85         C  0.49250745  0.46268098  0.24809170    -0.12000
H86         H  0.39965644  0.02087727  0.24902093     0.07700
H87         H  0.07245785  0.09821461  0.25240014     0.05200
H88         H  0.49518016  0.42309444  0.24698533     0.05100
C89         C  0.18474743  0.05171966  0.27117626     0.79200
N90         N  0.19801302  0.51897221  0.24511836    -0.79100
C91         C  0.15902616  0.48046969  0.22224951     0.81600
N92         N  0.10688545  0.47546962  0.22495446    -0.79000
C93         C  0.09396230  0.00928986  0.25024695     0.81700
N94         N  0.13288355  0.04646698  0.27367044    -0.80800
C95         C  0.02676258  0.21157376  0.22768685     0.79200
N96         N  0.49441116  0.22595739  0.25308751    -0.79100
C97         C  0.45679223  0.18710426  0.27678813     0.81600
N98         N  0.45189036  0.13417187  0.27505561    -0.79000
C99         C  0.48516116  0.12037450  0.25022933     0.81700
N100        N  0.02189522  0.15911233  0.22650599    -0.80800
C101        C  0.34176428  0.32677016  0.27109750     0.79200
N102        N  0.29860916  0.32351376  0.24689126    -0.79100
C103        C  0.30338389  0.36776997  0.22262869     0.81600
N104        N  0.34986586  0.41346294  0.22355533    -0.79000
C105        C  0.39207327  0.41620614  0.24689026     0.81700
N106        N  0.38775067  0.37292521  0.27018228    -0.80800
O107        O  0.45204343  0.25304264  0.90962272    -0.81900
O108        O  0.26793258  0.12241884  0.79224468    -0.66600
O109        O  0.34766671  0.21856663  0.87883329    -1.13200
C110        C  0.32488645  0.04986606  0.94424822     1.05000
O111        O  0.20940876  0.07596696  0.83976694    -0.79800
O112        O  0.22106193  0.08208546  0.92149166    -0.67400
Ni113      Ni  0.41503115  0.27671390  0.86820128     1.34900
C114        C  0.23702447  0.12430227  0.94423159     0.83700
O115        O  0.30979308  0.23427863  0.79969183    -0.80300
O116        O  0.38196420  0.30326692  0.82646249    -0.90600
C117        C  0.22302130  0.08494622  0.80216032     0.83300
O118        O  0.44354624  0.24394671  0.82721528    -0.68800
O119        O  0.28652532  0.02668558  0.91874450    -0.88100
C120        C  0.42198276  0.20218209  0.80456096     0.84100
C121        C  0.34291085  0.28466283  0.80080788     1.05700
H122        H  0.33824481  0.10260984  0.85714081     0.37500
O123        O  0.31306422  0.11624008  0.86900825    -1.10800
O124        O  0.28522147  0.16021281  0.94324570    -0.67200
Ni125      Ni  0.34938193  0.16140465  0.91418242     1.26300
O126        O  0.37189365  0.17245729  0.80494186    -0.67700
O127        O  0.35112119  0.10158308  0.94679432    -0.79900
C128        C  0.43685644  0.24602277  0.94696173     0.83500
O129        O  0.39049129  0.21094503  0.95622343    -0.67100
Ni130      Ni  0.24987086  0.05325273  0.87883532     1.27400
Ni131      Ni  0.30973543  0.17321360  0.83375913     1.26100
H132        H  0.32441487  0.23447393  0.89091584     0.38000
C133        C  0.05668526  0.02879982  0.99793276     0.02100
C134        C  0.00589577  0.03235643  0.49809284    -0.14000
C135        C  0.45862844  0.48466185  0.49988291    -0.00400
C136        C  0.46248714  0.43380393  0.00134815    -0.12600
C137        C  0.01255959  0.42962678  0.00093260     0.02100
C138        C  0.05983377  0.47722575  0.99937578    -0.12000
H139        H  0.00322301  0.07194293  0.49698720     0.07700
H140        H  0.42594515  0.39682268  0.50239887     0.05200
H141        H  0.09874661  0.47415982  0.99902140     0.05100
C142        C  0.31365587  0.44331735  0.52117587     0.79200
N143        N  0.30039062  0.97606469  0.49511785    -0.79100
C144        C  0.33937775  0.01456758  0.97224912     0.81600
N145        N  0.39151852  0.01956805  0.97495431    -0.79000
C146        C  0.40444126  0.48574768  0.50024689     0.81700
N147        N  0.36551970  0.44857024  0.52367033    -0.80800
C148        C  0.15663854  0.16826709  0.52109815     0.79200
N149        N  0.19979396  0.17152343  0.99689199    -0.79100
C150        C  0.19501954  0.12726706  0.97262996     0.81600
N151        N  0.14853770  0.08157412  0.97355708    -0.79000
C152        C  0.10632995  0.07883105  0.99689174     0.81700
N153        N  0.11065209  0.12211207  0.52018319    -0.80800
C154        C  0.47164021  0.28346351  0.97768665     0.79200
N155        N  0.47650758  0.33592498  0.97650564    -0.79100
C156        C  0.01324158  0.37466269  0.00022866     0.81600
N157        N  0.04651232  0.36086532  0.52505495    -0.79000
C158        C  0.04161086  0.30793312  0.52678751     0.81700
N159        N  0.00399181  0.26907987  0.00308714    -0.80800
O160        O  0.04635950  0.24199605  0.65962309    -0.81900
O161        O  0.23047036  0.37261868  0.54224411    -0.66600
O162        O  0.15073594  0.27647052  0.62883322    -1.13200
C163        C  0.17351752  0.44517137  0.69424832     1.05000
O164        O  0.28899385  0.41906888  0.58976635    -0.79800
O165        O  0.27734106  0.41295189  0.67149092    -0.67400
Ni166      Ni  0.08337122  0.21832382  0.61820170     1.34900
C167        C  0.26137880  0.37073470  0.69423069     0.83700
O168        O  0.18860965  0.26075870  0.54969180    -0.80300
O169        O  0.11643821  0.19177034  0.57646308    -0.90600
C170        C  0.27538171  0.41009060  0.55215978     0.83300
O171        O  0.05485655  0.25109088  0.57721529    -0.68800
O172        O  0.21187813  0.46835198  0.66874380    -0.88100
C173        C  0.07642020  0.29285546  0.55456064     0.84100
C174        C  0.15549184  0.21037443  0.55080829     1.05700
H175        H  0.16015792  0.39242753  0.60714092     0.37500
O176        O  0.18533863  0.37879725  0.61900796    -1.10800
O177        O  0.21318200  0.33482374  0.69324485    -0.67400
Ni178      Ni  0.14902136  0.33363254  0.66418248     1.26300
O179        O  0.12650931  0.32258047  0.55494160    -0.67700
O180        O  0.14728293  0.39345420  0.69679473    -0.79900
C181        C  0.06154646  0.24901488  0.69696200     0.83500
O182        O  0.10791183  0.28409188  0.70622359    -0.67100
Ni183      Ni  0.24853223  0.44178427  0.62883446     1.27400
Ni184      Ni  0.18866729  0.32182378  0.58375881     1.26100
H185        H  0.17398764  0.26056264  0.64091558     0.38000
C186        C  0.44171799  0.46623743  0.74793151     0.02100
C187        C  0.43856936  0.01781151  0.74937545    -0.14000
C188        C  0.48584342  0.06541045  0.75093326    -0.00400
C189        C  0.03591589  0.06123340  0.75134891    -0.12600
C190        C  0.03977495  0.01037552  0.74988299     0.02100
C191        C  0.49250748  0.46268089  0.74809173    -0.12000
H192        H  0.39965655  0.02087747  0.74902094     0.07700
H193        H  0.07245783  0.09821462  0.75240018     0.05200
H194        H  0.49518030  0.42309442  0.74698534     0.05100
C195        C  0.18474750  0.05171962  0.77117624     0.79200
N196        N  0.19801300  0.51897229  0.74511833    -0.79100
C197        C  0.15902612  0.48046976  0.72224946     0.81600
N198        N  0.10688541  0.47546970  0.72495440    -0.79000
C199        C  0.09396232  0.00928977  0.75024701     0.81700
N200        N  0.13288359  0.04646683  0.77367052    -0.80800
C201        C  0.02676255  0.21157383  0.72768689     0.79200
N202        N  0.49441116  0.22595738  0.75308754    -0.79100
C203        C  0.45679220  0.18710420  0.77678810     0.81600
N204        N  0.45189041  0.13417186  0.77505561    -0.79000
C205        C  0.48516123  0.12037451  0.75022932     0.81700
N206        N  0.02189516  0.15911238  0.72650602    -0.80800
C207        C  0.34176438  0.32677013  0.77109743     0.79200
N208        N  0.29860923  0.32351372  0.74689124    -0.79100
C209        C  0.30338386  0.36776999  0.72262878     0.81600
N210        N  0.34986579  0.41346299  0.72355542    -0.79000
C211        C  0.39207331  0.41620610  0.74689020     0.81700
N212        N  0.38775076  0.37292515  0.77018217    -0.80800
O213        O  0.45204342  0.75304288  0.40962279    -0.81900
O214        O  0.26793259  0.62241876  0.29224465    -0.66600
O215        O  0.34766668  0.71856671  0.37883330    -1.13200
C216        C  0.32488641  0.54986600  0.44424818     1.05000
O217        O  0.20940875  0.57596703  0.33976693    -0.79800
O218        O  0.22106199  0.58208555  0.42149159    -0.67400
Ni219      Ni  0.41503113  0.77671399  0.36820131     1.34900
C220        C  0.23702455  0.62430232  0.44423157     0.83700
O221        O  0.30979301  0.73427863  0.29969179    -0.80300
O222        O  0.38196422  0.80326689  0.32646242    -0.90600
C223        C  0.22302130  0.58494623  0.30216030     0.83300
O224        O  0.44354625  0.74394659  0.32721551    -0.68800
O225        O  0.28652527  0.52668549  0.41874447    -0.88100
C226        C  0.42198279  0.70218208  0.30456110     0.84100
C227        C  0.34291083  0.78466284  0.30080784     1.05700
H228        H  0.33824478  0.60260985  0.35714077     0.37500
O229        O  0.31306420  0.61624008  0.36900822    -1.10800
O230        O  0.28522154  0.66021283  0.44324573    -0.67200
Ni231      Ni  0.34938195  0.66140465  0.41418241     1.26300
O232        O  0.37189364  0.67245739  0.30494183    -0.67700
O233        O  0.35112115  0.60158304  0.44679426    -0.79900
C234        C  0.43685644  0.74602289  0.44696179     0.83500
O235        O  0.39049137  0.71094497  0.45622349    -0.67100
Ni236      Ni  0.24987082  0.55325270  0.37883528     1.27400
Ni237      Ni  0.30973539  0.67321360  0.33375910     1.26100
H238        H  0.32441479  0.73447408  0.39091588     0.38000
C239        C  0.05668527  0.52879987  0.49793275     0.02100
C240        C  0.00589585  0.53235650  0.99809271    -0.14000
C241        C  0.45862845  0.98466185  0.99988291    -0.00400
C242        C  0.46248709  0.93380379  0.50134818    -0.12600
C243        C  0.01255958  0.92962673  0.50093268     0.02100
C244        C  0.05983374  0.97722566  0.49937576    -0.12000
H245        H  0.00322312  0.57194307  0.99698698     0.07700
H246        H  0.42594515  0.89682267  0.00239885     0.05200
H247        H  0.09874657  0.97415970  0.49902130     0.05100
C248        C  0.31365584  0.94331724  0.02117583     0.79200
N249        N  0.30039064  0.47606475  0.99511789    -0.79100
C250        C  0.33937775  0.51456761  0.47224910     0.81600
N251        N  0.39151852  0.51956803  0.47495422    -0.79000
C252        C  0.40444127  0.98574773  0.00024698     0.81700
N253        N  0.36551969  0.94857024  0.02367038    -0.80800
C254        C  0.15663861  0.66826713  0.02109821     0.79200
N255        N  0.19979396  0.67152344  0.49689195    -0.79100
C256        C  0.19501958  0.62726708  0.47262994     0.81600
N257        N  0.14853774  0.58157411  0.47355705    -0.79000
C258        C  0.10632994  0.57883108  0.49689164     0.81700
N259        N  0.11065219  0.62211209  0.02018332    -0.80800
C260        C  0.47164024  0.78346358  0.47768672     0.79200
N261        N  0.47650760  0.83592502  0.47650577    -0.79100
C262        C  0.01324162  0.87466272  0.50022877     0.81600
N263        N  0.04651223  0.86086526  0.02505491    -0.79000
C264        C  0.04161083  0.80793308  0.02678744     0.81700
N265        N  0.00399180  0.76907993  0.50308720    -0.80800
O266        O  0.04635963  0.74199618  0.15962305    -0.81900
O267        O  0.23047035  0.87261856  0.04224409    -0.66600
O268        O  0.15073591  0.77647062  0.12883317    -1.13200
C269        C  0.17351750  0.94517133  0.19424833     1.05000
O270        O  0.28899384  0.91906892  0.08976632    -0.79800
O271        O  0.27734103  0.91295205  0.17149104    -0.67400
Ni272      Ni  0.08337127  0.71832393  0.11820166     1.34900
C273        C  0.26137881  0.87073477  0.19423073     0.83700
O274        O  0.18860970  0.76075872  0.04969178    -0.80300
O275        O  0.11643821  0.69177047  0.07646304    -0.90600
C276        C  0.27538169  0.91009052  0.05215975     0.83300
O277        O  0.05485652  0.75109089  0.07721526    -0.68800
O278        O  0.21187805  0.96835193  0.16874376    -0.88100
C279        C  0.07642020  0.79285541  0.05456059     0.84100
C280        C  0.15549186  0.71037449  0.05080827     1.05700
H281        H  0.16015783  0.89242741  0.10714081     0.37500
O282        O  0.18533858  0.87879720  0.11900791    -1.10800
O283        O  0.21318205  0.83482375  0.19324478    -0.67400
Ni284      Ni  0.14902135  0.83363257  0.16418245     1.26300
O285        O  0.12650933  0.82258036  0.05494152    -0.67700
O286        O  0.14728291  0.89345420  0.19679473    -0.79900
C287        C  0.06154660  0.74901485  0.19696196     0.83500
O288        O  0.10791191  0.78409191  0.20622359    -0.67100
Ni289      Ni  0.24853216  0.94178424  0.12883445     1.27400
Ni290      Ni  0.18866730  0.82182375  0.08375878     1.26100
H291        H  0.17398757  0.76056284  0.14091551     0.38000
C292        C  0.44171802  0.96623743  0.24793150     0.02100
C293        C  0.43856935  0.51781156  0.24937542    -0.14000
C294        C  0.48584337  0.56541048  0.25093324    -0.00400
C295        C  0.03591589  0.56123337  0.25134892    -0.12600
C296        C  0.03977495  0.51037554  0.24988295     0.02100
C297        C  0.49250751  0.96268097  0.24809170    -0.12000
H298        H  0.39965652  0.52087747  0.24902093     0.07700
H299        H  0.07245787  0.59821465  0.25240013     0.05200
H300        H  0.49518033  0.92309446  0.24698532     0.05100
C301        C  0.18474749  0.55171962  0.27117624     0.79200
N302        N  0.19801296  0.01897223  0.24511839    -0.79100
C303        C  0.15902611  0.98046972  0.22224950     0.81600
N304        N  0.10688541  0.97546969  0.22495442    -0.79000
C305        C  0.09396235  0.50928981  0.25024699     0.81700
N306        N  0.13288361  0.54646693  0.27367045    -0.80800
C307        C  0.02676264  0.71157379  0.22768686     0.79200
N308        N  0.49441116  0.72595741  0.25308758    -0.79100
C309        C  0.45679227  0.68710425  0.27678820     0.81600
N310        N  0.45189043  0.63417189  0.27505565    -0.79000
C311        C  0.48516119  0.62037454  0.25022931     0.81700
N312        N  0.02189515  0.65911232  0.22650595    -0.80800
C313        C  0.34176439  0.82677017  0.27109745     0.79200
N314        N  0.29860925  0.82351377  0.24689126    -0.79100
C315        C  0.30338391  0.86777002  0.22262876     0.81600
N316        N  0.34986586  0.91346300  0.22355540    -0.79000
C317        C  0.39207333  0.91620612  0.24689022     0.81700
N318        N  0.38775077  0.87292521  0.27018222    -0.80800
O319        O  0.45204345  0.75304268  0.90962271    -0.81900
O320        O  0.26793263  0.62241880  0.79224469    -0.66600
O321        O  0.34766656  0.71856673  0.87883337    -1.13200
C322        C  0.32488656  0.54986607  0.94424821     1.05000
O323        O  0.20940877  0.57596701  0.83976695    -0.79800
O324        O  0.22106200  0.58208542  0.92149167    -0.67400
Ni325      Ni  0.41503114  0.77671392  0.86820127     1.34900
C326        C  0.23702451  0.62430222  0.94423161     0.83700
O327        O  0.30979299  0.73427868  0.79969189    -0.80300
O328        O  0.38196425  0.80326694  0.82646245    -0.90600
C329        C  0.22302129  0.58494630  0.80216032     0.83300
O330        O  0.44354621  0.74394673  0.82721524    -0.68800
O331        O  0.28652547  0.52668561  0.91874446    -0.88100
C332        C  0.42198273  0.70218212  0.80456093     0.84100
C333        C  0.34291079  0.78466288  0.80080792     1.05700
H334        H  0.33824521  0.60260975  0.85714073     0.37500
O335        O  0.31306441  0.61624005  0.86900819    -1.10800
O336        O  0.28522147  0.66021274  0.94324574    -0.67200
Ni337      Ni  0.34938195  0.66140465  0.91418242     1.26300
O338        O  0.37189364  0.67245730  0.80494187    -0.67700
O339        O  0.35112130  0.60158309  0.94679431    -0.79900
C340        C  0.43685647  0.74602278  0.94696171     0.83500
O341        O  0.39049134  0.71094498  0.95622344    -0.67100
Ni342      Ni  0.24987097  0.55325276  0.87883529     1.27400
Ni343      Ni  0.30973544  0.67321360  0.83375915     1.26100
H344        H  0.32441447  0.73447416  0.89091597     0.38000
C345        C  0.05668523  0.52879990  0.99793275     0.02100
C346        C  0.00589588  0.53235644  0.49809284    -0.14000
C347        C  0.45862835  0.98466178  0.49988289    -0.00400
C348        C  0.46248724  0.93380390  0.00134816    -0.12600
C349        C  0.01255960  0.92962670  0.00093261     0.02100
C350        C  0.05983376  0.97722565  0.99937579    -0.12000
H351        H  0.00322314  0.57194299  0.49698718     0.07700
H352        H  0.42594501  0.89682260  0.50239889     0.05200
H353        H  0.09874658  0.97415967  0.99902141     0.05100
C354        C  0.31365584  0.94331722  0.52117582     0.79200
N355        N  0.30039061  0.47606475  0.49511784    -0.79100
C356        C  0.33937779  0.51456760  0.97224914     0.81600
N357        N  0.39151853  0.51956799  0.97495425    -0.79000
C358        C  0.40444122  0.98574761  0.50024691     0.81700
N359        N  0.36551969  0.94857017  0.52367033    -0.80800
C360        C  0.15663858  0.66826708  0.52109819     0.79200
N361        N  0.19979401  0.67152345  0.99689201    -0.79100
C362        C  0.19501957  0.62726706  0.97262997     0.81600
N363        N  0.14853769  0.58157418  0.97355705    -0.79000
C364        C  0.10632997  0.57883111  0.99689175     0.81700
N365        N  0.11065212  0.62211209  0.52018319    -0.80800
C366        C  0.47164028  0.78346354  0.97768662     0.79200
N367        N  0.47650775  0.83592502  0.97650559    -0.79100
C368        C  0.01324161  0.87466266  0.00022869     0.81600
N369        N  0.04651221  0.86086526  0.52505498    -0.79000
C370        C  0.04161074  0.80793304  0.52678752     0.81700
N371        N  0.00399195  0.76907991  0.00308712    -0.80800
O372        O  0.04635956  0.74199604  0.65962307    -0.81900
O373        O  0.23047031  0.87261862  0.54224411    -0.66600
O374        O  0.15073597  0.77647061  0.62883322    -1.13200
C375        C  0.17351746  0.94517126  0.69424835     1.05000
O376        O  0.28899385  0.91906891  0.58976632    -0.79800
O377        O  0.27734106  0.91295193  0.67149092    -0.67400
Ni378      Ni  0.08337132  0.71832385  0.61820171     1.34900
C379        C  0.26137877  0.87073474  0.69423068     0.83700
O380        O  0.18860974  0.76075870  0.54969186    -0.80300
O381        O  0.11643822  0.69177040  0.57646304    -0.90600
C382        C  0.27538166  0.91009049  0.55215975     0.83300
O383        O  0.05485659  0.75109086  0.57721533    -0.68800
O384        O  0.21187805  0.96835183  0.66874379    -0.88100
C385        C  0.07642018  0.79285537  0.55456061     0.84100
C386        C  0.15549189  0.71037444  0.55080830     1.05700
H387        H  0.16015801  0.89242762  0.60714085     0.37500
O388        O  0.18533864  0.87879728  0.61900795    -1.10800
O389        O  0.21318194  0.83482383  0.69324488    -0.67400
Ni390      Ni  0.14902129  0.83363258  0.66418247     1.26300
O391        O  0.12650931  0.82258037  0.55494153    -0.67700
O392        O  0.14728276  0.89345414  0.69679473    -0.79900
C393        C  0.06154647  0.74901492  0.69696199     0.83500
O394        O  0.10791176  0.78409199  0.70622360    -0.67100
Ni395      Ni  0.24853222  0.94178427  0.62883445     1.27400
Ni396      Ni  0.18866729  0.82182378  0.58375881     1.26100
H397        H  0.17398771  0.76056290  0.64091554     0.38000
C398        C  0.44171797  0.96623744  0.74793153     0.02100
C399        C  0.43856933  0.51781149  0.74937544    -0.14000
C400        C  0.48584338  0.56541047  0.75093325    -0.00400
C401        C  0.03591594  0.56123339  0.75134897    -0.12600
C402        C  0.03977490  0.51037548  0.74988300     0.02100
C403        C  0.49250743  0.96268092  0.74809174    -0.12000
H404        H  0.39965649  0.52087741  0.74902095     0.07700
H405        H  0.07245793  0.59821460  0.75240018     0.05200
H406        H  0.49518014  0.92309436  0.74698535     0.05100
C407        C  0.18474745  0.55171964  0.77117626     0.79200
N408        N  0.19801307  0.01897237  0.74511822    -0.79100
C409        C  0.15902616  0.98046972  0.72224945     0.81600
N410        N  0.10688544  0.97546959  0.72495449    -0.79000
C411        C  0.09396230  0.50928982  0.75024699     0.81700
N412        N  0.13288355  0.54646688  0.77367051    -0.80800
C413        C  0.02676262  0.71157382  0.72768690     0.79200
N414        N  0.49441110  0.72595738  0.75308749    -0.79100
C415        C  0.45679212  0.68710421  0.77678803     0.81600
N416        N  0.45189034  0.63417186  0.77505556    -0.79000
C417        C  0.48516122  0.62037454  0.75022934     0.81700
N418        N  0.02189531  0.65911240  0.72650604    -0.80800
C419        C  0.34176428  0.82677019  0.77109749     0.79200
N420        N  0.29860916  0.82351379  0.74689126    -0.79100
C421        C  0.30338386  0.86777002  0.72262873     0.81600
N422        N  0.34986583  0.91346299  0.72355535    -0.79000
C423        C  0.39207329  0.91620611  0.74689019     0.81700
N424        N  0.38775068  0.87292519  0.77018222    -0.80800
O425        O  0.95204351  0.25304279  0.40962280    -0.81900
O426        O  0.76793268  0.12241869  0.29224465    -0.66600
O427        O  0.84766668  0.21856670  0.37883331    -1.13200
C428        C  0.82488633  0.04986595  0.44424818     1.05000
O429        O  0.70940873  0.07596707  0.33976691    -0.79800
O430        O  0.72106191  0.08208549  0.42149159    -0.67400
Ni431      Ni  0.91503120  0.27671394  0.36820131     1.34900
C432        C  0.73702448  0.12430227  0.44423157     0.83700
O433        O  0.80979296  0.23427859  0.29969180    -0.80300
O434        O  0.88196422  0.30326682  0.32646243    -0.90600
C435        C  0.72302129  0.08494628  0.30216029     0.83300
O436        O  0.94354628  0.24394658  0.32721548    -0.68800
O437        O  0.78652519  0.02668544  0.41874447    -0.88100
C438        C  0.92198277  0.20218208  0.30456105     0.84100
C439        C  0.84291080  0.28466280  0.30080786     1.05700
H440        H  0.83824473  0.10260980  0.35714077     0.37500
O441        O  0.81306415  0.11624004  0.36900823    -1.10800
O442        O  0.78522147  0.16021278  0.44324572    -0.67200
Ni443      Ni  0.84938190  0.16140462  0.41418241     1.26300
O444        O  0.87189363  0.17245740  0.30494183    -0.67700
O445        O  0.85112107  0.10158299  0.44679426    -0.79900
C446        C  0.93685649  0.24602281  0.44696181     0.83500
O447        O  0.89049138  0.21094496  0.45622348    -0.67100
Ni448      Ni  0.74987076  0.05325267  0.37883527     1.27400
Ni449      Ni  0.80973538  0.17321356  0.33375911     1.26100
H450        H  0.82441482  0.23447412  0.39091588     0.38000
C451        C  0.55668521  0.02879982  0.49793277     0.02100
C452        C  0.50589597  0.03235640  0.99809271    -0.14000
C453        C  0.95862836  0.48466192  0.99988292    -0.00400
C454        C  0.96248717  0.43380387  0.50134818    -0.12600
C455        C  0.51255968  0.42962676  0.50093267     0.02100
C456        C  0.55983382  0.47722570  0.49937576    -0.12000
H457        H  0.50322330  0.07194299  0.99698696     0.07700
H458        H  0.92594507  0.39682274  0.00239887     0.05200
H459        H  0.59874671  0.47415974  0.49902131     0.05100
C460        C  0.81365577  0.44331727  0.02117583     0.79200
N461        N  0.80039066  0.97606464  0.99511779    -0.79100
C462        C  0.83937766  0.01456757  0.47224911     0.81600
N463        N  0.89151842  0.01956796  0.47495422    -0.79000
C464        C  0.90444120  0.48574775  0.00024700     0.81700
N465        N  0.86551962  0.44857025  0.02367038    -0.80800
C466        C  0.65663855  0.16826708  0.02109820     0.79200
N467        N  0.69979392  0.17152341  0.49689195    -0.79100
C468        C  0.69501952  0.12726704  0.47262994     0.81600
N469        N  0.64853768  0.08157407  0.47355707    -0.79000
C470        C  0.60632988  0.07883106  0.49689165     0.81700
N471        N  0.61065216  0.12211202  0.02018329    -0.80800
C472        C  0.97164032  0.28346356  0.47768673     0.79200
N473        N  0.97650773  0.33592502  0.47650573    -0.79100
C474        C  0.51324172  0.37466275  0.50022877     0.81600
N475        N  0.54651215  0.36086523  0.02505488    -0.79000
C476        C  0.54161077  0.30793307  0.02678743     0.81700
N477        N  0.50399185  0.26907993  0.50308724    -0.80800
O478        O  0.54635962  0.24199616  0.15962305    -0.81900
O479        O  0.73047031  0.37261852  0.04224408    -0.66600
O480        O  0.65073607  0.27647055  0.12883325    -1.13200
C481        C  0.67351748  0.44517133  0.19424834     1.05000
O482        O  0.78899381  0.41906898  0.08976631    -0.79800
O483        O  0.77734106  0.41295211  0.17149101    -0.67400
Ni484      Ni  0.58337129  0.21832392  0.11820168     1.34900
C485        C  0.76137882  0.37073482  0.19423071     0.83700
O486        O  0.68860962  0.26075866  0.04969178    -0.80300
O487        O  0.61643813  0.19177040  0.07646304    -0.90600
C488        C  0.77538163  0.41009053  0.05215974     0.83300
O489        O  0.55485662  0.25109098  0.07721529    -0.68800
O490        O  0.71187803  0.46835197  0.16874378    -0.88100
C491        C  0.57642024  0.29285546  0.05456056     0.84100
C492        C  0.65549177  0.21037443  0.05080826     1.05700
H493        H  0.66015795  0.39242761  0.10714072     0.37500
O494        O  0.68533867  0.37879729  0.11900790    -1.10800
O495        O  0.71318202  0.33482387  0.19324484    -0.67400
Ni496      Ni  0.64902137  0.33363260  0.16418244     1.26300
O497        O  0.62650936  0.32258043  0.05494150    -0.67700
O498        O  0.64728285  0.39345420  0.19679469    -0.79900
C499        C  0.56154658  0.24901487  0.19696196     0.83500
O500        O  0.60791183  0.28409201  0.20622359    -0.67100
Ni501      Ni  0.74853220  0.44178436  0.12883445     1.27400
Ni502      Ni  0.68866732  0.32182374  0.08375878     1.26100
H503        H  0.67398794  0.26056271  0.14091563     0.38000
C504        C  0.94171800  0.46623747  0.24793151     0.02100
C505        C  0.93856928  0.01781150  0.24937541    -0.14000
C506        C  0.98584332  0.06541044  0.25093323    -0.00400
C507        C  0.53591587  0.06123335  0.25134893    -0.12600
C508        C  0.53977495  0.01037555  0.24988296     0.02100
C509        C  0.99250747  0.46268102  0.24809170    -0.12000
H510        H  0.89965643  0.02087738  0.24902094     0.07700
H511        H  0.57245784  0.09821463  0.25240014     0.05200
H512        H  0.99518026  0.42309450  0.24698533     0.05100
C513        C  0.68474748  0.05171967  0.27117625     0.79200
N514        N  0.69801296  0.51897225  0.24511838    -0.79100
C515        C  0.65902611  0.48046970  0.22224953     0.81600
N516        N  0.60688540  0.47546966  0.22495445    -0.79000
C517        C  0.59396234  0.00928989  0.25024696     0.81700
N518        N  0.63288360  0.04646699  0.27367045    -0.80800
C519        C  0.52676263  0.21157378  0.22768687     0.79200
N520        N  0.99441117  0.22595738  0.25308754    -0.79100
C521        C  0.95679224  0.18710423  0.27678816     0.81600
N522        N  0.95189042  0.13417187  0.27505565    -0.79000
C523        C  0.98516120  0.12037451  0.25022934     0.81700
N524        N  0.52189525  0.15911233  0.22650604    -0.80800
C525        C  0.84176436  0.32677015  0.27109747     0.79200
N526        N  0.79860924  0.32351374  0.24689123    -0.79100
C527        C  0.80338391  0.36776999  0.22262871     0.81600
N528        N  0.84986586  0.41346297  0.22355539    -0.79000
C529        C  0.89207330  0.41620614  0.24689025     0.81700
N530        N  0.88775074  0.37292519  0.27018224    -0.80800
O531        O  0.95204339  0.25304263  0.90962272    -0.81900
O532        O  0.76793259  0.12241876  0.79224470    -0.66600
O533        O  0.84766656  0.21856671  0.87883334    -1.13200
C534        C  0.82488656  0.04986607  0.94424821     1.05000
O535        O  0.70940870  0.07596696  0.83976696    -0.79800
O536        O  0.72106199  0.08208547  0.92149167    -0.67400
Ni537      Ni  0.91503114  0.27671390  0.86820128     1.34900
C538        C  0.73702450  0.12430228  0.94423159     0.83700
O539        O  0.80979309  0.23427861  0.79969183    -0.80300
O540        O  0.88196424  0.30326693  0.82646247    -0.90600
C541        C  0.72302122  0.08494628  0.80216033     0.83300
O542        O  0.94354625  0.24394668  0.82721528    -0.68800
O543        O  0.78652543  0.02668558  0.91874448    -0.88100
C544        C  0.92198274  0.20218210  0.80456095     0.84100
C545        C  0.84291084  0.28466283  0.80080790     1.05700
H546        H  0.83824517  0.10260977  0.85714077     0.37500
O547        O  0.81306436  0.11624006  0.86900821    -1.10800
O548        O  0.78522145  0.16021281  0.94324573    -0.67200
Ni549      Ni  0.84938191  0.16140468  0.91418242     1.26300
O550        O  0.87189364  0.17245731  0.80494188    -0.67700
O551        O  0.85112126  0.10158310  0.94679430    -0.79900
C552        C  0.93685643  0.24602276  0.94696172     0.83500
O553        O  0.89049128  0.21094502  0.95622345    -0.67100
Ni554      Ni  0.74987092  0.05325273  0.87883530     1.27400
Ni555      Ni  0.80973544  0.17321358  0.83375914     1.26100
H556        H  0.82441450  0.23447409  0.89091589     0.38000
C557        C  0.55668532  0.02879980  0.99793276     0.02100
C558        C  0.50589582  0.03235643  0.49809284    -0.14000
C559        C  0.95862842  0.48466183  0.49988291    -0.00400
C560        C  0.96248716  0.43380395  0.00134816    -0.12600
C561        C  0.51255957  0.42962675  0.00093260     0.02100
C562        C  0.55983378  0.47722573  0.99937578    -0.12000
H563        H  0.50322304  0.07194293  0.49698719     0.07700
H564        H  0.92594509  0.39682266  0.50239887     0.05200
H565        H  0.59874662  0.47415976  0.99902140     0.05100
C566        C  0.81365591  0.44331732  0.52117586     0.79200
N567        N  0.80039051  0.97606470  0.49511784    -0.79100
C568        C  0.83937785  0.01456759  0.97224912     0.81600
N569        N  0.89151860  0.01956804  0.97495431    -0.79000
C570        C  0.90444129  0.48574766  0.50024690     0.81700
N571        N  0.86551974  0.44857022  0.52367034    -0.80800
C572        C  0.65663853  0.16826708  0.52109817     0.79200
N573        N  0.69979397  0.17152345  0.99689200    -0.79100
C574        C  0.69501959  0.12726707  0.97262998     0.81600
N575        N  0.64853778  0.08157412  0.97355710    -0.79000
C576        C  0.60633004  0.07883102  0.99689176     0.81700
N577        N  0.61065204  0.12211211  0.52018315    -0.80800
C578        C  0.97164024  0.28346352  0.97768662     0.79200
N579        N  0.97650769  0.33592500  0.97650558    -0.79100
C580        C  0.51324152  0.37466268  0.00022870     0.81600
N581        N  0.54651240  0.36086532  0.52505490    -0.79000
C582        C  0.54161085  0.30793309  0.52678748     0.81700
N583        N  0.50399185  0.26907990  0.00308711    -0.80800
O584        O  0.54635950  0.24199600  0.65962306    -0.81900
O585        O  0.73047025  0.37261874  0.54224410    -0.66600
O586        O  0.65073594  0.27647054  0.62883324    -1.13200
C587        C  0.67351746  0.44517137  0.69424832     1.05000
O588        O  0.78899381  0.41906886  0.58976634    -0.79800
O589        O  0.77734113  0.41295189  0.67149090    -0.67400
Ni590      Ni  0.58337125  0.21832381  0.61820170     1.34900
C591        C  0.76137883  0.37073470  0.69423066     0.83700
O592        O  0.68860968  0.26075870  0.54969184    -0.80300
O593        O  0.61643817  0.19177036  0.57646304    -0.90600
C594        C  0.77538167  0.41009057  0.55215976     0.83300
O595        O  0.55485661  0.25109088  0.57721529    -0.68800
O596        O  0.71187807  0.46835195  0.66874379    -0.88100
C597        C  0.57642022  0.29285542  0.55456061     0.84100
C598        C  0.65549185  0.21037443  0.55080830     1.05700
H599        H  0.66015795  0.39242760  0.60714090     0.37500
O600        O  0.68533860  0.37879726  0.61900797    -1.10800
O601        O  0.71318199  0.33482378  0.69324485    -0.67400
Ni602      Ni  0.64902129  0.33363257  0.66418248     1.26300
O603        O  0.62650931  0.32258048  0.55494158    -0.67700
O604        O  0.64728279  0.39345421  0.69679470    -0.79900
C605        C  0.56154643  0.24901487  0.69696198     0.83500
O606        O  0.60791171  0.28409197  0.70622360    -0.67100
Ni607      Ni  0.74853221  0.44178426  0.62883447     1.27400
Ni608      Ni  0.68866726  0.32182380  0.58375881     1.26100
H609        H  0.67398771  0.26056272  0.64091558     0.38000
C610        C  0.94171793  0.46623743  0.74793153     0.02100
C611        C  0.93856935  0.01781146  0.74937540    -0.14000
C612        C  0.98584334  0.06541044  0.75093313    -0.00400
C613        C  0.53591595  0.06123334  0.75134896    -0.12600
C614        C  0.53977492  0.01037546  0.74988298     0.02100
C615        C  0.99250740  0.46268085  0.74809174    -0.12000
H616        H  0.89965645  0.02087736  0.74902096     0.07700
H617        H  0.57245797  0.09821457  0.75240015     0.05200
H618        H  0.99518012  0.42309436  0.74698534     0.05100
C619        C  0.68474741  0.05171965  0.77117624     0.79200
N620        N  0.69801302  0.51897229  0.74511832    -0.79100
C621        C  0.65902613  0.48046976  0.72224946     0.81600
N622        N  0.60688543  0.47546972  0.72495442    -0.79000
C623        C  0.59396229  0.00928973  0.75024700     0.81700
N624        N  0.63288351  0.04646682  0.77367051    -0.80800
C625        C  0.52676259  0.21157379  0.72768688     0.79200
N626        N  0.99441103  0.22595739  0.75308749    -0.79100
C627        C  0.95679207  0.18710420  0.77678804     0.81600
N628        N  0.95189028  0.13417185  0.77505556    -0.79000
C629        C  0.98516111  0.12037452  0.75022930     0.81700
N630        N  0.52189523  0.15911235  0.72650600    -0.80800
C631        C  0.84176432  0.32677013  0.77109746     0.79200
N632        N  0.79860917  0.32351372  0.74689127    -0.79100
C633        C  0.80338386  0.36776997  0.72262875     0.81600
N634        N  0.84986581  0.41346295  0.72355537    -0.79000
C635        C  0.89207327  0.41620610  0.74689021     0.81700
N636        N  0.88775069  0.37292516  0.77018221    -0.80800
O637        O  0.95204341  0.75304288  0.40962281    -0.81900
O638        O  0.76793259  0.62241870  0.29224467    -0.66600
O639        O  0.84766671  0.71856672  0.37883329    -1.13200
C640        C  0.82488650  0.54986601  0.44424816     1.05000
O641        O  0.70940869  0.57596703  0.33976695    -0.79800
O642        O  0.72106207  0.58208552  0.42149163    -0.67400
Ni643      Ni  0.91503118  0.77671400  0.36820130     1.34900
C644        C  0.73702456  0.62430232  0.44423159     0.83700
O645        O  0.80979310  0.73427862  0.29969179    -0.80300
O646        O  0.88196432  0.80326690  0.32646239    -0.90600
C647        C  0.72302122  0.58494628  0.30216032     0.83300
O648        O  0.94354630  0.74394657  0.32721550    -0.68800
O649        O  0.78652538  0.52668549  0.41874444    -0.88100
C650        C  0.92198282  0.70218211  0.30456106     0.84100
C651        C  0.84291092  0.78466283  0.30080783     1.05700
H652        H  0.83824515  0.60260977  0.35714072     0.37500
O653        O  0.81306434  0.61624004  0.36900818    -1.10800
O654        O  0.78522150  0.66021290  0.44324569    -0.67200
Ni655      Ni  0.84938194  0.66140465  0.41418241     1.26300
O656        O  0.87189368  0.67245738  0.30494182    -0.67700
O657        O  0.85112117  0.60158306  0.44679426    -0.79900
C658        C  0.93685638  0.74602289  0.44696181     0.83500
O659        O  0.89049133  0.71094494  0.45622350    -0.67100
Ni660      Ni  0.74987088  0.55325270  0.37883527     1.27400
Ni661      Ni  0.80973546  0.67321357  0.33375909     1.26100
H662        H  0.82441484  0.73447413  0.39091583     0.38000
C663        C  0.55668533  0.52879985  0.49793275     0.02100
C664        C  0.50589590  0.53235650  0.99809271    -0.14000
C665        C  0.95862843  0.98466182  0.99988292    -0.00400
C666        C  0.96248712  0.93380383  0.50134819    -0.12600
C667        C  0.51255956  0.92962670  0.50093268     0.02100
C668        C  0.55983375  0.97722564  0.49937576    -0.12000
H669        H  0.50322317  0.57194308  0.99698697     0.07700
H670        H  0.92594508  0.89682265  0.00239886     0.05200
H671        H  0.59874658  0.97415965  0.49902131     0.05100
C672        C  0.81365587  0.94331721  0.02117582     0.79200
N673        N  0.80039054  0.47606477  0.99511788    -0.79100
C674        C  0.83937785  0.51456762  0.47224910     0.81600
N675        N  0.89151860  0.51956802  0.47495422    -0.79000
C676        C  0.90444130  0.98574771  0.00024700     0.81700
N677        N  0.86551973  0.94857021  0.02367040    -0.80800
C678        C  0.65663859  0.66826711  0.02109824     0.79200
N679        N  0.69979397  0.67152345  0.49689196    -0.79100
C680        C  0.69501963  0.62726707  0.47262996     0.81600
N681        N  0.64853781  0.58157409  0.47355707    -0.79000
C682        C  0.60633002  0.57883105  0.49689166     0.81700
N683        N  0.61065219  0.62211207  0.02018336    -0.80800
C684        C  0.97164018  0.78346358  0.47768674     0.79200
N685        N  0.97650766  0.83592506  0.47650573    -0.79100
C686        C  0.51324157  0.87466269  0.50022881     0.81600
N687        N  0.54651229  0.86086524  0.02505485    -0.79000
C688        C  0.54161079  0.80793304  0.02678743     0.81700
N689        N  0.50399190  0.76907995  0.50308717    -0.80800
O690        O  0.54635950  0.74199614  0.15962301    -0.81900
O691        O  0.73047024  0.87261862  0.04224408    -0.66600
O692        O  0.65073589  0.77647064  0.12883319    -1.13200
C693        C  0.67351743  0.94517133  0.19424833     1.05000
O694        O  0.78899380  0.91906890  0.08976631    -0.79800
O695        O  0.77734110  0.91295204  0.17149102    -0.67400
Ni696      Ni  0.58337125  0.71832393  0.11820167     1.34900
C697        C  0.76137883  0.87073475  0.19423070     0.83700
O698        O  0.68860971  0.76075872  0.04969181    -0.80300
O699        O  0.61643817  0.69177049  0.07646302    -0.90600
C700        C  0.77538165  0.91009049  0.05215973     0.83300
O701        O  0.55485653  0.75109084  0.07721524    -0.68800
O702        O  0.71187799  0.96835190  0.16874376    -0.88100
C703        C  0.57642015  0.79285537  0.05456057     0.84100
C704        C  0.65549185  0.71037449  0.05080828     1.05700
H705        H  0.66015788  0.89242749  0.10714080     0.37500
O706        O  0.68533856  0.87879722  0.11900792    -1.10800
O707        O  0.71318202  0.83482378  0.19324478    -0.67400
Ni708      Ni  0.64902126  0.83363258  0.16418246     1.26300
O709        O  0.62650926  0.82258040  0.05494154    -0.67700
O710        O  0.64728276  0.89345420  0.19679471    -0.79900
C711        C  0.56154642  0.74901487  0.19696193     0.83500
O712        O  0.60791170  0.78409194  0.20622358    -0.67100
Ni713      Ni  0.74853215  0.94178422  0.12883446     1.27400
Ni714      Ni  0.68866723  0.82182377  0.08375878     1.26100
H715        H  0.67398763  0.76056292  0.14091551     0.38000
C716        C  0.94171794  0.96623745  0.24793151     0.02100
C717        C  0.93856938  0.51781151  0.24937541    -0.14000
C718        C  0.98584336  0.56541046  0.25093323    -0.00400
C719        C  0.53591588  0.56123335  0.25134892    -0.12600
C720        C  0.53977492  0.51037553  0.24988293     0.02100
C721        C  0.99250742  0.96268093  0.24809170    -0.12000
H722        H  0.89965648  0.52087739  0.24902093     0.07700
H723        H  0.57245792  0.59821464  0.25240011     0.05200
H724        H  0.99518013  0.92309439  0.24698532     0.05100
C725        C  0.68474741  0.55171966  0.27117625     0.79200
N726        N  0.69801299  0.01897223  0.24511838    -0.79100
C727        C  0.65902612  0.98046973  0.22224950     0.81600
N728        N  0.60688543  0.97546971  0.22495444    -0.79000
C729        C  0.59396231  0.50928987  0.25024694     0.81700
N730        N  0.63288355  0.54646700  0.27367043    -0.80800
C731        C  0.52676251  0.71157378  0.22768682     0.79200
N732        N  0.99441125  0.72595743  0.25308757    -0.79100
C733        C  0.95679228  0.68710428  0.27678815     0.81600
N734        N  0.95189045  0.63417192  0.27505566    -0.79000
C735        C  0.98516116  0.62037453  0.25022932     0.81700
N736        N  0.52189515  0.65911236  0.22650595    -0.80800
C737        C  0.84176442  0.82677016  0.27109745     0.79200
N738        N  0.79860924  0.82351378  0.24689131    -0.79100
C739        C  0.80338391  0.86776999  0.22262875     0.81600
N740        N  0.84986585  0.91346298  0.22355539    -0.79000
C741        C  0.89207329  0.91620615  0.24689026     0.81700
N742        N  0.88775079  0.87292521  0.27018221    -0.80800
O743        O  0.95204352  0.75304264  0.90962270    -0.81900
O744        O  0.76793264  0.62241881  0.79224468    -0.66600
O745        O  0.84766669  0.71856669  0.87883332    -1.13200
C746        C  0.82488640  0.54986606  0.94424822     1.05000
O747        O  0.70940874  0.57596704  0.83976692    -0.79800
O748        O  0.72106186  0.58208547  0.92149164    -0.67400
Ni749      Ni  0.91503121  0.77671391  0.86820128     1.34900
C750        C  0.73702447  0.62430225  0.94423161     0.83700
O751        O  0.80979304  0.73427868  0.79969184    -0.80300
O752        O  0.88196422  0.80326695  0.82646251    -0.90600
C753        C  0.72302132  0.58494628  0.80216030     0.83300
O754        O  0.94354625  0.74394671  0.82721524    -0.68800
O755        O  0.78652525  0.52668560  0.91874450    -0.88100
C756        C  0.92198272  0.70218209  0.80456095     0.84100
C757        C  0.84291082  0.78466289  0.80080791     1.05700
H758        H  0.83824470  0.60260980  0.85714078     0.37500
O759        O  0.81306416  0.61624008  0.86900825    -1.10800
O760        O  0.78522147  0.66021272  0.94324575    -0.67200
Ni761      Ni  0.84938191  0.66140464  0.91418242     1.26300
O762        O  0.87189360  0.67245733  0.80494187    -0.67700
O763        O  0.85112114  0.60158307  0.94679432    -0.79900
C764        C  0.93685652  0.74602275  0.94696171     0.83500
O765        O  0.89049134  0.71094504  0.95622342    -0.67100
Ni766      Ni  0.74987079  0.55325276  0.87883531     1.27400
Ni767      Ni  0.80973539  0.67321362  0.83375914     1.26100
H768        H  0.82441483  0.73447409  0.89091592     0.38000
C769        C  0.55668527  0.52879989  0.99793276     0.02100
C770        C  0.50589597  0.53235644  0.49809284    -0.14000
C771        C  0.95862830  0.98466179  0.49988290    -0.00400
C772        C  0.96248718  0.93380388  0.00134815    -0.12600
C773        C  0.51255964  0.92962672  0.00093262     0.02100
C774        C  0.55983376  0.97722563  0.99937579    -0.12000
H775        H  0.50322328  0.57194300  0.49698717     0.07700
H776        H  0.92594502  0.89682259  0.50239889     0.05200
H777        H  0.59874663  0.97415964  0.99902141     0.05100
C778        C  0.81365575  0.94331726  0.52117582     0.79200
N779        N  0.80039069  0.47606475  0.49511783    -0.79100
C780        C  0.83937769  0.51456760  0.97224912     0.81600
N781        N  0.89151843  0.51956799  0.97495424    -0.79000
C782        C  0.90444114  0.98574761  0.50024691     0.81700
N783        N  0.86551958  0.94857018  0.52367033    -0.80800
C784        C  0.65663855  0.66826710  0.52109816     0.79200
N785        N  0.69979396  0.67152349  0.99689197    -0.79100
C786        C  0.69501954  0.62726710  0.97262995     0.81600
N787        N  0.64853768  0.58157419  0.97355705    -0.79000
C788        C  0.60632997  0.57883112  0.99689175     0.81700
N789        N  0.61065214  0.62211206  0.52018318    -0.80800
C790        C  0.97164036  0.78346352  0.97768660     0.79200
N791        N  0.97650777  0.83592498  0.97650557    -0.79100
C792        C  0.51324165  0.87466267  0.00022868     0.81600
N793        N  0.54651223  0.86086528  0.52505497    -0.79000
C794        C  0.54161080  0.80793308  0.52678750     0.81700
N795        N  0.50399183  0.76907988  0.00308715    -0.80800
O796        O  0.54635958  0.74199610  0.65962310    -0.81900
O797        O  0.73047030  0.87261857  0.54224410    -0.66600
O798        O  0.65073607  0.77647051  0.62883327    -1.13200
C799        C  0.67351746  0.94517126  0.69424835     1.05000
O800        O  0.78899379  0.91906895  0.58976632    -0.79800
O801        O  0.77734105  0.91295195  0.67149091    -0.67400
Ni802      Ni  0.58337128  0.71832385  0.61820172     1.34900
C803        C  0.76137880  0.87073476  0.69423070     0.83700
O804        O  0.68860961  0.76075869  0.54969180    -0.80300
O805        O  0.61643815  0.69177035  0.57646306    -0.90600
C806        C  0.77538161  0.91009055  0.55215976     0.83300
O807        O  0.55485659  0.75109089  0.57721532    -0.68800
O808        O  0.71187802  0.96835185  0.66874380    -0.88100
C809        C  0.57642023  0.79285541  0.55456062     0.84100
C810        C  0.65549179  0.71037444  0.55080827     1.05700
H811        H  0.66015802  0.89242753  0.60714086     0.37500
O812        O  0.68533867  0.87879723  0.61900796    -1.10800
O813        O  0.71318199  0.83482381  0.69324489    -0.67400
Ni814      Ni  0.64902136  0.83363254  0.66418248     1.26300
O815        O  0.62650935  0.82258038  0.55494155    -0.67700
O816        O  0.64728281  0.89345412  0.69679474    -0.79900
C817        C  0.56154655  0.74901491  0.69696201     0.83500
O818        O  0.60791185  0.78409197  0.70622361    -0.67100
Ni819      Ni  0.74853218  0.94178428  0.62883445     1.27400
Ni820      Ni  0.68866732  0.82182374  0.58375882     1.26100
H821        H  0.67398795  0.76056268  0.64091564     0.38000
C822        C  0.94171799  0.96623744  0.74793152     0.02100
C823        C  0.93856929  0.51781153  0.74937544    -0.14000
C824        C  0.98584339  0.56541048  0.75093324    -0.00400
C825        C  0.53591595  0.56123340  0.75134897    -0.12600
C826        C  0.53977496  0.51037552  0.74988301     0.02100
C827        C  0.99250744  0.96268098  0.74809174    -0.12000
H828        H  0.89965647  0.52087749  0.74902095     0.07700
H829        H  0.57245792  0.59821462  0.75240017     0.05200
H830        H  0.99518023  0.92309445  0.74698535     0.05100
C831        C  0.68474750  0.55171965  0.77117625     0.79200
N832        N  0.69801301  0.01897240  0.74511823    -0.79100
C833        C  0.65902612  0.98046972  0.72224946     0.81600
N834        N  0.60688539  0.97546956  0.72495448    -0.79000
C835        C  0.59396233  0.50928984  0.75024701     0.81700
N836        N  0.63288360  0.54646689  0.77367052    -0.80800
C837        C  0.52676267  0.71157384  0.72768693     0.79200
N838        N  0.99441111  0.72595737  0.75308752    -0.79100
C839        C  0.95679214  0.68710419  0.77678806     0.81600
N840        N  0.95189040  0.63417185  0.77505559    -0.79000
C841        C  0.98516126  0.62037455  0.75022936     0.81700
N842        N  0.52189534  0.65911240  0.72650609    -0.80800
C843        C  0.84176436  0.82677018  0.77109746     0.79200
N844        N  0.79860923  0.82351377  0.74689124    -0.79100
C845        C  0.80338388  0.86777003  0.72262874     0.81600
N846        N  0.84986582  0.91346302  0.72355540    -0.79000
C847        C  0.89207332  0.91620610  0.74689018     0.81700
N848        N  0.88775075  0.87292518  0.77018218    -0.80800
loop_ 
_geom_bond_atom_site_label_1 
_geom_bond_atom_site_label_2 
_geom_bond_distance 
_geom_bond_site_symmetry_2 
_ccdc_geom_bond_type 
O1           Ni7   1.919       .  S
O1           C22   1.266       .  A
O2          Ni25   1.924       .  S
O2           C11   1.270       .  A
O3           Ni7   1.897       .  S
O3          Ni25   1.913       .  S
O3          Ni19   1.918       .  S
O3           H26   0.966       .  S
C4           O21   1.278       .  A
C4           O13   1.277       .  A
C4           C38   1.464       .  S
O5          Ni24   1.916       .  S
O5           C11   1.267       .  A
O6          Ni24   1.889       .  S
O6            C8   1.268       .  A
Ni7          O10   1.901       .  S
Ni7          O12   1.907       .  S
C8           O18   1.275       .  A
C8           C44   1.485       .  S
O9          Ni25   1.963       .  S
O9           C15   1.286       .  A
O10          C15   1.278       .  A
C11          C89   1.461       .  S
O12          C14   1.265       .  A
O13         Ni24   1.922       .  S
C14          O20   1.268       .  A
C14          C97   1.465       .  S
C15         C101   1.486       .  S
H16          O17   0.966       .  S
O17         Ni25   1.927       .  S
O17         Ni19   1.901       .  S
O17         Ni24   1.888       .  S
O18         Ni19   1.958       .  S
Ni19         O23   1.915       .  S
Ni19         O21   1.925       .  S
O20         Ni25   1.925       .  S
C22          O23   1.267       .  A
C22          C48   1.458       .  S
C27          C46   1.470       .  S
C27         C134   1.409       .  A
C27         C244   1.408   1_545  A
C28         C133   1.409       .  A
C28         C665   1.402   1_445  A
C28          H33   1.084       .  S
C29          C40   1.473   1_556  S
C29         C664   1.402       .  A
C29         C136   1.398   1_556  A
C30         C135   1.398       .  A
C30         C455   1.398       .  A
C30         H140   1.085       .  S
C31          C50   1.469       .  S
C31          C32   1.400       .  A
C31         C454   1.398   1_455  A
C32         C239   1.408       .  A
C32          H35   1.084       .  S
H34         C136   1.085       .  S
C36          C64   1.461       .  S
C36          N41   1.352       .  A
C36         N249   1.358   1_554  A
N37         C248   1.358   1_556  A
N37         C144   1.362   1_565  A
C38          N39   1.362       .  A
C38         N143   1.362   1_545  A
N39         C358   1.359   1_545  A
C40          N41   1.355       .  A
C40         N357   1.359   1_554  A
C42          C68   1.486       .  S
C42          N47   1.359       .  A
C42         N149   1.377   1_554  A
N43          C44   1.378       .  A
N43         C148   1.377       .  A
C44          N45   1.360       .  A
N45          C46   1.344       .  A
C46         N153   1.342       .  A
N47         C152   1.342   1_554  A
C48          N49   1.350       .  A
C48         N477   1.359       .  A
N49         C474   1.352       .  A
C50         N473   1.352   1_455  A
C50         N157   1.358       .  A
N51          C52   1.362       .  A
N51         C156   1.358       .  A
C52          C67   1.465       .  S
C52         N159   1.364       .  A
N53         C472   1.359   1_455  A
N53         C158   1.364       .  A
O54         Ni60   1.919       .  S
O54          C75   1.266       .  A
O55         Ni78   1.924       .  S
O55          C64   1.270       .  A
O56         Ni60   1.897       .  S
O56         Ni78   1.913       .  S
O56         Ni72   1.918       .  S
O56          H79   0.966       .  S
C57          O74   1.278       .  A
C57          O66   1.277       .  A
C57          C91   1.464       .  S
O58         Ni77   1.916       .  S
O58          C64   1.267       .  A
O59         Ni77   1.889       .  S
O59          C61   1.268       .  A
Ni60         O63   1.901       .  S
Ni60         O65   1.907       .  S
C61          O71   1.275       .  A
C61         C103   1.485       .  S
O62         Ni78   1.963       .  S
O62          C68   1.286       .  A
O63          C68   1.278       .  A
O65          C67   1.265       .  A
O66         Ni77   1.922       .  S
C67          O73   1.268       .  A
H69          O70   0.966       .  S
O70         Ni78   1.927       .  S
O70         Ni72   1.901       .  S
O70         Ni77   1.888       .  S
O71         Ni72   1.958       .  S
Ni72         O76   1.915       .  S
Ni72         O74   1.925       .  S
O73         Ni78   1.925       .  S
C75          O76   1.267       .  A
C75          C95   1.458       .  S
C80         C105   1.470       .  S
C80          C85   1.409       .  A
C80         C293   1.408       .  A
C81          C82   1.400       .  A
C81         C292   1.408   1_545  A
C81          H86   1.084       .  S
C82          C99   1.469       .  S
C82         C507   1.398       .  A
C83          C84   1.398       .  A
C83         C506   1.398   1_455  A
C83          H87   1.085       .  S
C84          C93   1.473       .  S
C84         C721   1.402   1_445  A
C85         C720   1.402       .  A
C85          H88   1.084       .  S
C89          N94   1.352       .  A
C89         N302   1.358       .  A
N90          C91   1.362       .  A
N90         C301   1.358       .  A
C91          N92   1.362       .  A
N92         C305   1.359       .  A
C93          N94   1.355       .  A
C93         N304   1.359   1_545  A
C95         N100   1.350       .  A
C95         N520   1.359   1_455  A
N96          C97   1.364       .  A
N96         C519   1.359       .  A
C97          N98   1.362       .  A
N98          C99   1.358       .  A
C99         N524   1.352       .  A
N100        C523   1.352   1_455  A
C101        N102   1.377       .  A
C101        N106   1.359       .  A
N102        C103   1.378       .  A
C103        N104   1.360       .  A
N104        C105   1.344       .  A
C105        N106   1.342       .  A
O107       Ni113   1.919       .  S
O107        C128   1.266       .  A
O108       Ni131   1.924       .  S
O108        C117   1.270       .  A
O109       Ni113   1.897       .  S
O109       Ni131   1.913       .  S
O109       Ni125   1.918       .  S
O109        H132   0.966       .  S
C110        O127   1.278       .  A
C110        O119   1.277       .  A
C110        C144   1.464       .  S
O111       Ni130   1.916       .  S
O111        C117   1.267       .  A
O112       Ni130   1.889       .  S
O112        C114   1.268       .  A
Ni113       O116   1.901       .  S
Ni113       O118   1.907       .  S
C114        O124   1.275       .  A
C114        C150   1.485       .  S
O115       Ni131   1.963       .  S
O115        C121   1.286       .  A
O116        C121   1.278       .  A
C117        C195   1.461       .  S
O118        C120   1.265       .  A
O119       Ni130   1.922       .  S
C120        O126   1.268       .  A
C120        C203   1.465       .  S
C121        C207   1.486       .  S
H122        O123   0.966       .  S
O123       Ni131   1.927       .  S
O123       Ni125   1.901       .  S
O123       Ni130   1.888       .  S
O124       Ni125   1.958       .  S
Ni125       O129   1.915       .  S
Ni125       O127   1.925       .  S
O126       Ni131   1.925       .  S
C128        O129   1.267       .  A
C128        C154   1.458       .  S
C133        C152   1.470       .  S
C133        C350   1.408   1_545  A
C134        C771   1.402   1_445  A
C134        H139   1.084       .  S
C135        C146   1.473       .  S
C135        C770   1.402       .  A
C136        C561   1.398       .  A
C137        C156   1.469       .  S
C137        C560   1.398   1_455  A
C137        C138   1.400   1_554  A
C138        C345   1.408       .  A
C138        H141   1.084       .  S
C142        C170   1.461       .  S
C142        N355   1.358       .  A
C142        N147   1.352       .  A
N143        C354   1.358       .  A
C144        N145   1.362       .  A
N145        C252   1.359   1_546  A
C146        N251   1.359       .  A
C146        N147   1.355       .  A
C148        C174   1.486       .  S
C148        N153   1.359       .  A
N149        C150   1.378       .  A
C150        N151   1.360       .  A
N151        C152   1.344       .  A
C154        N155   1.350       .  A
C154        N583   1.359   1_556  A
N155        C580   1.352   1_556  A
C156        N579   1.352   1_454  A
N157        C158   1.362       .  A
C158        C173   1.465       .  S
N159        C578   1.359   1_454  A
O160       Ni166   1.919       .  S
O160        C181   1.266       .  A
O161       Ni184   1.924       .  S
O161        C170   1.270       .  A
O162       Ni166   1.897       .  S
O162       Ni184   1.913       .  S
O162       Ni178   1.918       .  S
O162        H185   0.966       .  S
C163        O180   1.278       .  A
C163        O172   1.277       .  A
C163        C197   1.464       .  S
O164       Ni183   1.916       .  S
O164        C170   1.267       .  A
O165       Ni183   1.889       .  S
O165        C167   1.268       .  A
Ni166       O169   1.901       .  S
Ni166       O171   1.907       .  S
C167        O177   1.275       .  A
C167        C209   1.485       .  S
O168       Ni184   1.963       .  S
O168        C174   1.286       .  A
O169        C174   1.278       .  A
O171        C173   1.265       .  A
O172       Ni183   1.922       .  S
C173        O179   1.268       .  A
H175        O176   0.966       .  S
O176       Ni184   1.927       .  S
O176       Ni178   1.901       .  S
O176       Ni183   1.888       .  S
O177       Ni178   1.958       .  S
Ni178       O182   1.915       .  S
Ni178       O180   1.925       .  S
O179       Ni184   1.925       .  S
C181        O182   1.267       .  A
C181        C201   1.458       .  S
C186        C211   1.470       .  S
C186        C399   1.408       .  A
C186        C191   1.409       .  A
C187        C398   1.408   1_545  A
C187        C188   1.400       .  A
C187        H192   1.084       .  S
C188        C205   1.469       .  S
C188        C613   1.398       .  A
C189        C612   1.398   1_455  A
C189        C190   1.398       .  A
C189        H193   1.085       .  S
C190        C199   1.473       .  S
C190        C827   1.402   1_445  A
C191        C826   1.402       .  A
C191        H194   1.084       .  S
C195        N408   1.358       .  A
C195        N200   1.352       .  A
N196        C407   1.358       .  A
N196        C197   1.362       .  A
C197        N198   1.362       .  A
N198        C411   1.359       .  A
C199        N410   1.359   1_545  A
C199        N200   1.355       .  A
C201        N626   1.359   1_455  A
C201        N206   1.350       .  A
N202        C625   1.359       .  A
N202        C203   1.364       .  A
C203        N204   1.362       .  A
N204        C205   1.358       .  A
C205        N630   1.352       .  A
N206        C629   1.352   1_455  A
C207        N208   1.377       .  A
C207        N212   1.359       .  A
N208        C209   1.378       .  A
C209        N210   1.360       .  A
N210        C211   1.344       .  A
C211        N212   1.342       .  A
O213       Ni219   1.919       .  S
O213        C234   1.266       .  A
O214       Ni237   1.924       .  S
O214        C223   1.270       .  A
O215       Ni219   1.897       .  S
O215       Ni237   1.913       .  S
O215       Ni231   1.918       .  S
O215        H238   0.966       .  S
C216        O233   1.278       .  A
C216        O225   1.277       .  A
C216        C250   1.464       .  S
O217       Ni236   1.916       .  S
O217        C223   1.267       .  A
O218       Ni236   1.889       .  S
O218        C220   1.268       .  A
Ni219       O222   1.901       .  S
Ni219       O224   1.907       .  S
C220        O230   1.275       .  A
C220        C256   1.485       .  S
O221       Ni237   1.963       .  S
O221        C227   1.286       .  A
O222        C227   1.278       .  A
C223        C301   1.461       .  S
O224        C226   1.265       .  A
O225       Ni236   1.922       .  S
C226        O232   1.268       .  A
C226        C309   1.465       .  S
C227        C313   1.486       .  S
H228        O229   0.966       .  S
O229       Ni237   1.927       .  S
O229       Ni231   1.901       .  S
O229       Ni236   1.888       .  S
O230       Ni231   1.958       .  S
Ni231       O235   1.915       .  S
Ni231       O233   1.925       .  S
O232       Ni237   1.925       .  S
C234        O235   1.267       .  A
C234        C260   1.458       .  S
C239        C258   1.470       .  S
C239        C346   1.409       .  A
C240        C345   1.409       .  A
C240        C453   1.402   1_455  A
C240        H245   1.084       .  S
C241        C252   1.473   1_556  S
C241        C452   1.402   1_565  A
C241        C348   1.398   1_556  A
C242        C347   1.398       .  A
C242        C667   1.398       .  A
C242        H352   1.085       .  S
C243        C262   1.469       .  S
C243        C666   1.398   1_455  A
C243        C244   1.400       .  A
C244        H247   1.084       .  S
H246        C348   1.085       .  S
C248        C276   1.461       .  S
C248        N253   1.352       .  A
N249        C356   1.362       .  A
C250        N355   1.362       .  A
C250        N251   1.362       .  A
C252        N253   1.355       .  A
C254        C280   1.486       .  S
C254        N361   1.377   1_554  A
C254        N259   1.359       .  A
N255        C360   1.377       .  A
N255        C256   1.378       .  A
C256        N257   1.360       .  A
N257        C258   1.344       .  A
C258        N365   1.342       .  A
N259        C364   1.342   1_554  A
C260        N261   1.350       .  A
C260        N689   1.359       .  A
N261        C686   1.352       .  A
C262        N685   1.352   1_455  A
C262        N369   1.358       .  A
N263        C368   1.358       .  A
N263        C264   1.362       .  A
C264        C279   1.465       .  S
C264        N371   1.364       .  A
N265        C684   1.359   1_455  A
N265        C370   1.364       .  A
O266       Ni272   1.919       .  S
O266        C287   1.266       .  A
O267       Ni290   1.924       .  S
O267        C276   1.270       .  A
O268       Ni272   1.897       .  S
O268       Ni290   1.913       .  S
O268       Ni284   1.918       .  S
O268        H291   0.966       .  S
C269        O286   1.278       .  A
C269        O278   1.277       .  A
C269        C303   1.464       .  S
O270       Ni289   1.916       .  S
O270        C276   1.267       .  A
O271       Ni289   1.889       .  S
O271        C273   1.268       .  A
Ni272       O275   1.901       .  S
Ni272       O277   1.907       .  S
C273        O283   1.275       .  A
C273        C315   1.485       .  S
O274       Ni290   1.963       .  S
O274        C280   1.286       .  A
O275        C280   1.278       .  A
O277        C279   1.265       .  A
O278       Ni289   1.922       .  S
C279        O285   1.268       .  A
H281        O282   0.966       .  S
O282       Ni290   1.927       .  S
O282       Ni284   1.901       .  S
O282       Ni289   1.888       .  S
O283       Ni284   1.958       .  S
Ni284       O288   1.915       .  S
Ni284       O286   1.925       .  S
O285       Ni290   1.925       .  S
C287        O288   1.267       .  A
C287        C307   1.458       .  S
C292        C317   1.470       .  S
C292        C297   1.409       .  A
C293        C294   1.400       .  A
C293        H298   1.084       .  S
C294        C311   1.469       .  S
C294        C719   1.398       .  A
C295        C718   1.398   1_455  A
C295        C296   1.398       .  A
C295        H299   1.085       .  S
C296        C305   1.473       .  S
C296        C509   1.402   1_455  A
C297        C508   1.402   1_565  A
C297        H300   1.084       .  S
C301        N306   1.352       .  A
N302        C303   1.362   1_545  A
C303        N304   1.362       .  A
C305        N306   1.355       .  A
C307        N732   1.359   1_455  A
C307        N312   1.350       .  A
N308        C731   1.359       .  A
N308        C309   1.364       .  A
C309        N310   1.362       .  A
N310        C311   1.358       .  A
C311        N736   1.352       .  A
N312        C735   1.352   1_455  A
C313        N314   1.377       .  A
C313        N318   1.359       .  A
N314        C315   1.378       .  A
C315        N316   1.360       .  A
N316        C317   1.344       .  A
C317        N318   1.342       .  A
O319       Ni325   1.919       .  S
O319        C340   1.266       .  A
O320       Ni343   1.924       .  S
O320        C329   1.270       .  A
O321       Ni325   1.897       .  S
O321       Ni343   1.913       .  S
O321       Ni337   1.918       .  S
O321        H344   0.966       .  S
C322        O339   1.278       .  A
C322        O331   1.277       .  A
C322        C356   1.464       .  S
O323       Ni342   1.916       .  S
O323        C329   1.267       .  A
O324       Ni342   1.889       .  S
O324        C326   1.268       .  A
Ni325       O328   1.901       .  S
Ni325       O330   1.907       .  S
C326        O336   1.275       .  A
C326        C362   1.485       .  S
O327       Ni343   1.963       .  S
O327        C333   1.286       .  A
O328        C333   1.278       .  A
C329        C407   1.461       .  S
O330        C332   1.265       .  A
O331       Ni342   1.922       .  S
C332        O338   1.268       .  A
C332        C415   1.465       .  S
C333        C419   1.486       .  S
H334        O335   0.966       .  S
O335       Ni343   1.927       .  S
O335       Ni337   1.901       .  S
O335       Ni342   1.888       .  S
O336       Ni337   1.958       .  S
Ni337       O341   1.915       .  S
Ni337       O339   1.925       .  S
O338       Ni343   1.925       .  S
C340        O341   1.267       .  A
C340        C366   1.458       .  S
C345        C364   1.470       .  S
C346        C559   1.402   1_455  A
C346        H351   1.084       .  S
C347        C358   1.473       .  S
C347        C558   1.402   1_565  A
C348        C773   1.398       .  A
C349        C368   1.469       .  S
C349        C772   1.398   1_455  A
C349        C350   1.400   1_554  A
C350        H353   1.084       .  S
C354        C382   1.461       .  S
C354        N359   1.352       .  A
C356        N357   1.362       .  A
C358        N359   1.355       .  A
C360        C386   1.486       .  S
C360        N365   1.359       .  A
N361        C362   1.378       .  A
C362        N363   1.360       .  A
N363        C364   1.344       .  A
C366        N367   1.350       .  A
C366        N795   1.359   1_556  A
N367        C792   1.352   1_556  A
C368        N791   1.352   1_454  A
N369        C370   1.362       .  A
C370        C385   1.465       .  S
N371        C790   1.359   1_454  A
O372       Ni378   1.919       .  S
O372        C393   1.266       .  A
O373       Ni396   1.924       .  S
O373        C382   1.270       .  A
O374       Ni378   1.897       .  S
O374       Ni396   1.913       .  S
O374       Ni390   1.918       .  S
O374        H397   0.966       .  S
C375        O392   1.278       .  A
C375        O384   1.277       .  A
C375        C409   1.464       .  S
O376       Ni395   1.916       .  S
O376        C382   1.267       .  A
O377       Ni395   1.889       .  S
O377        C379   1.268       .  A
Ni378       O381   1.901       .  S
Ni378       O383   1.907       .  S
C379        O389   1.275       .  A
C379        C421   1.485       .  S
O380       Ni396   1.963       .  S
O380        C386   1.286       .  A
O381        C386   1.278       .  A
O383        C385   1.265       .  A
O384       Ni395   1.922       .  S
C385        O391   1.268       .  A
H387        O388   0.966       .  S
O388       Ni396   1.927       .  S
O388       Ni390   1.901       .  S
O388       Ni395   1.888       .  S
O389       Ni390   1.958       .  S
Ni390       O394   1.915       .  S
Ni390       O392   1.925       .  S
O391       Ni396   1.925       .  S
C393        O394   1.267       .  A
C393        C413   1.458       .  S
C398        C423   1.470       .  S
C398        C403   1.409       .  A
C399        C400   1.400       .  A
C399        H404   1.084       .  S
C400        C417   1.469       .  S
C400        C825   1.398       .  A
C401        C824   1.398   1_455  A
C401        C402   1.398       .  A
C401        H405   1.085       .  S
C402        C411   1.473       .  S
C402        C615   1.402   1_455  A
C403        C614   1.402   1_565  A
C403        H406   1.084       .  S
C407        N412   1.352       .  A
N408        C409   1.362   1_545  A
C409        N410   1.362       .  A
C411        N412   1.355       .  A
C413        N838   1.359   1_455  A
C413        N418   1.350       .  A
N414        C837   1.359       .  A
N414        C415   1.364       .  A
C415        N416   1.362       .  A
N416        C417   1.358       .  A
C417        N842   1.352       .  A
N418        C841   1.352   1_455  A
C419        N420   1.377       .  A
C419        N424   1.359       .  A
N420        C421   1.378       .  A
C421        N422   1.360       .  A
N422        C423   1.344       .  A
C423        N424   1.342       .  A
O425       Ni431   1.919       .  S
O425        C446   1.266       .  A
O426       Ni449   1.924       .  S
O426        C435   1.270       .  A
O427       Ni431   1.897       .  S
O427       Ni449   1.913       .  S
O427       Ni443   1.918       .  S
O427        H450   0.966       .  S
C428        O445   1.278       .  A
C428        O437   1.277       .  A
C428        C462   1.464       .  S
O429       Ni448   1.916       .  S
O429        C435   1.267       .  A
O430       Ni448   1.889       .  S
O430        C432   1.268       .  A
Ni431       O434   1.901       .  S
Ni431       O436   1.907       .  S
C432        O442   1.275       .  A
C432        C468   1.485       .  S
O433       Ni449   1.963       .  S
O433        C439   1.286       .  A
O434        C439   1.278       .  A
C435        C513   1.461       .  S
O436        C438   1.265       .  A
O437       Ni448   1.922       .  S
C438        O444   1.268       .  A
C438        C521   1.465       .  S
C439        C525   1.486       .  S
H440        O441   0.966       .  S
O441       Ni449   1.927       .  S
O441       Ni443   1.901       .  S
O441       Ni448   1.888       .  S
O442       Ni443   1.958       .  S
Ni443       O447   1.915       .  S
Ni443       O445   1.925       .  S
O444       Ni449   1.925       .  S
C446        O447   1.267       .  A
C446        C472   1.458       .  S
C451        C470   1.470       .  S
C451        C558   1.409       .  A
C451        C668   1.408   1_545  A
C452        C557   1.409       .  A
C452        H457   1.084       .  S
C453        C464   1.473   1_556  S
C453        C560   1.398   1_556  A
C454        C559   1.398       .  A
C454        H564   1.085       .  S
C455        C474   1.469       .  S
C455        C456   1.400       .  A
C456        C663   1.408       .  A
C456        H459   1.084       .  S
H458        C560   1.085       .  S
C460        C488   1.461       .  S
C460        N673   1.358   1_554  A
C460        N465   1.352       .  A
N461        C672   1.358   1_556  A
N461        C568   1.362   1_565  A
C462        N567   1.362   1_545  A
C462        N463   1.362       .  A
N463        C782   1.359   1_545  A
C464        N781   1.359   1_554  A
C464        N465   1.355       .  A
C466        C492   1.486       .  S
C466        N573   1.377   1_554  A
C466        N471   1.359       .  A
N467        C572   1.377       .  A
N467        C468   1.378       .  A
C468        N469   1.360       .  A
N469        C470   1.344       .  A
C470        N577   1.342       .  A
N471        C576   1.342   1_554  A
C472        N473   1.350       .  A
C474        N581   1.358       .  A
N475        C580   1.358       .  A
N475        C476   1.362       .  A
C476        C491   1.465       .  S
C476        N583   1.364       .  A
N477        C582   1.364       .  A
O478       Ni484   1.919       .  S
O478        C499   1.266       .  A
O479       Ni502   1.924       .  S
O479        C488   1.270       .  A
O480       Ni484   1.897       .  S
O480       Ni502   1.913       .  S
O480       Ni496   1.918       .  S
O480        H503   0.966       .  S
C481        O498   1.278       .  A
C481        O490   1.277       .  A
C481        C515   1.464       .  S
O482       Ni501   1.916       .  S
O482        C488   1.267       .  A
O483       Ni501   1.889       .  S
O483        C485   1.268       .  A
Ni484       O487   1.901       .  S
Ni484       O489   1.907       .  S
C485        O495   1.275       .  A
C485        C527   1.485       .  S
O486       Ni502   1.963       .  S
O486        C492   1.286       .  A
O487        C492   1.278       .  A
O489        C491   1.265       .  A
O490       Ni501   1.922       .  S
C491        O497   1.268       .  A
H493        O494   0.966       .  S
O494       Ni502   1.927       .  S
O494       Ni496   1.901       .  S
O494       Ni501   1.888       .  S
O495       Ni496   1.958       .  S
Ni496       O500   1.915       .  S
Ni496       O498   1.925       .  S
O497       Ni502   1.925       .  S
C499        O500   1.267       .  A
C499        C519   1.458       .  S
C504        C529   1.470       .  S
C504        C717   1.408       .  A
C504        C509   1.409       .  A
C505        C716   1.408   1_545  A
C505        C506   1.400       .  A
C505        H510   1.084       .  S
C506        C523   1.469       .  S
C507        C508   1.398       .  A
C507        H511   1.085       .  S
C508        C517   1.473       .  S
C509        H512   1.084       .  S
C513        N726   1.358       .  A
C513        N518   1.352       .  A
N514        C725   1.358       .  A
N514        C515   1.362       .  A
C515        N516   1.362       .  A
N516        C729   1.359       .  A
C517        N728   1.359   1_545  A
C517        N518   1.355       .  A
C519        N524   1.350       .  A
N520        C521   1.364       .  A
C521        N522   1.362       .  A
N522        C523   1.358       .  A
C525        N526   1.377       .  A
C525        N530   1.359       .  A
N526        C527   1.378       .  A
C527        N528   1.360       .  A
N528        C529   1.344       .  A
C529        N530   1.342       .  A
O531       Ni537   1.919       .  S
O531        C552   1.266       .  A
O532       Ni555   1.924       .  S
O532        C541   1.270       .  A
O533       Ni537   1.897       .  S
O533       Ni555   1.913       .  S
O533       Ni549   1.918       .  S
O533        H556   0.966       .  S
C534        O551   1.278       .  A
C534        O543   1.277       .  A
C534        C568   1.464       .  S
O535       Ni554   1.916       .  S
O535        C541   1.267       .  A
O536       Ni554   1.889       .  S
O536        C538   1.268       .  A
Ni537       O540   1.901       .  S
Ni537       O542   1.907       .  S
C538        O548   1.275       .  A
C538        C574   1.485       .  S
O539       Ni555   1.963       .  S
O539        C545   1.286       .  A
O540        C545   1.278       .  A
C541        C619   1.461       .  S
O542        C544   1.265       .  A
O543       Ni554   1.922       .  S
C544        O550   1.268       .  A
C544        C627   1.465       .  S
C545        C631   1.486       .  S
H546        O547   0.966       .  S
O547       Ni555   1.927       .  S
O547       Ni549   1.901       .  S
O547       Ni554   1.888       .  S
O548       Ni549   1.958       .  S
Ni549       O553   1.915       .  S
Ni549       O551   1.925       .  S
O550       Ni555   1.925       .  S
C552        O553   1.267       .  A
C552        C578   1.458       .  S
C557        C576   1.470       .  S
C557        C774   1.408   1_545  A
C558        H563   1.084       .  S
C559        C570   1.473       .  S
C561        C580   1.469       .  S
C561        C562   1.400   1_554  A
C562        C769   1.408       .  A
C562        H565   1.084       .  S
C566        C594   1.461       .  S
C566        N779   1.358       .  A
C566        N571   1.352       .  A
N567        C778   1.358       .  A
C568        N569   1.362       .  A
N569        C676   1.359   1_546  A
C570        N675   1.359       .  A
C570        N571   1.355       .  A
C572        C598   1.486       .  S
C572        N577   1.359       .  A
N573        C574   1.378       .  A
C574        N575   1.360       .  A
N575        C576   1.344       .  A
C578        N579   1.350       .  A
N581        C582   1.362       .  A
C582        C597   1.465       .  S
O584       Ni590   1.919       .  S
O584        C605   1.266       .  A
O585       Ni608   1.924       .  S
O585        C594   1.270       .  A
O586       Ni590   1.897       .  S
O586       Ni608   1.913       .  S
O586       Ni602   1.918       .  S
O586        H609   0.966       .  S
C587        O604   1.278       .  A
C587        O596   1.277       .  A
C587        C621   1.464       .  S
O588       Ni607   1.916       .  S
O588        C594   1.267       .  A
O589       Ni607   1.889       .  S
O589        C591   1.268       .  A
Ni590       O593   1.901       .  S
Ni590       O595   1.907       .  S
C591        O601   1.275       .  A
C591        C633   1.485       .  S
O592       Ni608   1.963       .  S
O592        C598   1.286       .  A
O593        C598   1.278       .  A
O595        C597   1.265       .  A
O596       Ni607   1.922       .  S
C597        O603   1.268       .  A
H599        O600   0.966       .  S
O600       Ni608   1.927       .  S
O600       Ni602   1.901       .  S
O600       Ni607   1.888       .  S
O601       Ni602   1.958       .  S
Ni602       O606   1.915       .  S
Ni602       O604   1.925       .  S
O603       Ni608   1.925       .  S
C605        O606   1.267       .  A
C605        C625   1.458       .  S
C610        C635   1.470       .  S
C610        C823   1.408       .  A
C610        C615   1.409       .  A
C611        C822   1.408   1_545  A
C611        C612   1.400       .  A
C611        H616   1.084       .  S
C612        C629   1.469       .  S
C613        C614   1.398       .  A
C613        H617   1.085       .  S
C614        C623   1.473       .  S
C615        H618   1.084       .  S
C619        N832   1.358       .  A
C619        N624   1.352       .  A
N620        C831   1.358       .  A
N620        C621   1.362       .  A
C621        N622   1.362       .  A
N622        C835   1.359       .  A
C623        N834   1.359   1_545  A
C623        N624   1.355       .  A
C625        N630   1.350       .  A
N626        C627   1.364       .  A
C627        N628   1.362       .  A
N628        C629   1.358       .  A
C631        N632   1.377       .  A
C631        N636   1.359       .  A
N632        C633   1.378       .  A
C633        N634   1.360       .  A
N634        C635   1.344       .  A
C635        N636   1.342       .  A
O637       Ni643   1.919       .  S
O637        C658   1.266       .  A
O638       Ni661   1.924       .  S
O638        C647   1.270       .  A
O639       Ni643   1.897       .  S
O639       Ni661   1.913       .  S
O639       Ni655   1.918       .  S
O639        H662   0.966       .  S
C640        O657   1.278       .  A
C640        O649   1.277       .  A
C640        C674   1.464       .  S
O641       Ni660   1.916       .  S
O641        C647   1.267       .  A
O642       Ni660   1.889       .  S
O642        C644   1.268       .  A
Ni643       O646   1.901       .  S
Ni643       O648   1.907       .  S
C644        O654   1.275       .  A
C644        C680   1.485       .  S
O645       Ni661   1.963       .  S
O645        C651   1.286       .  A
O646        C651   1.278       .  A
C647        C725   1.461       .  S
O648        C650   1.265       .  A
O649       Ni660   1.922       .  S
C650        O656   1.268       .  A
C650        C733   1.465       .  S
C651        C737   1.486       .  S
H652        O653   0.966       .  S
O653       Ni661   1.927       .  S
O653       Ni655   1.901       .  S
O653       Ni660   1.888       .  S
O654       Ni655   1.958       .  S
Ni655       O659   1.915       .  S
Ni655       O657   1.925       .  S
O656       Ni661   1.925       .  S
C658        O659   1.267       .  A
C658        C684   1.458       .  S
C663        C682   1.470       .  S
C663        C770   1.409       .  A
C664        C769   1.409       .  A
C664        H669   1.084       .  S
C665        C676   1.473   1_556  S
C665        C772   1.398   1_556  A
C666        C771   1.398       .  A
C666        H776   1.085       .  S
C667        C686   1.469       .  S
C667        C668   1.400       .  A
C668        H671   1.084       .  S
H670        C772   1.085       .  S
C672        C700   1.461       .  S
C672        N677   1.352       .  A
N673        C780   1.362       .  A
C674        N779   1.362       .  A
C674        N675   1.362       .  A
C676        N677   1.355       .  A
C678        C704   1.486       .  S
C678        N785   1.377   1_554  A
C678        N683   1.359       .  A
N679        C784   1.377       .  A
N679        C680   1.378       .  A
C680        N681   1.360       .  A
N681        C682   1.344       .  A
C682        N789   1.342       .  A
N683        C788   1.342   1_554  A
C684        N685   1.350       .  A
C686        N793   1.358       .  A
N687        C792   1.358       .  A
N687        C688   1.362       .  A
C688        C703   1.465       .  S
C688        N795   1.364       .  A
N689        C794   1.364       .  A
O690       Ni696   1.919       .  S
O690        C711   1.266       .  A
O691       Ni714   1.924       .  S
O691        C700   1.270       .  A
O692       Ni696   1.897       .  S
O692       Ni714   1.913       .  S
O692       Ni708   1.918       .  S
O692        H715   0.966       .  S
C693        O710   1.278       .  A
C693        O702   1.277       .  A
C693        C727   1.464       .  S
O694       Ni713   1.916       .  S
O694        C700   1.267       .  A
O695       Ni713   1.889       .  S
O695        C697   1.268       .  A
Ni696       O699   1.901       .  S
Ni696       O701   1.907       .  S
C697        O707   1.275       .  A
C697        C739   1.485       .  S
O698       Ni714   1.963       .  S
O698        C704   1.286       .  A
O699        C704   1.278       .  A
O701        C703   1.265       .  A
O702       Ni713   1.922       .  S
C703        O709   1.268       .  A
H705        O706   0.966       .  S
O706       Ni714   1.927       .  S
O706       Ni708   1.901       .  S
O706       Ni713   1.888       .  S
O707       Ni708   1.958       .  S
Ni708       O712   1.915       .  S
Ni708       O710   1.925       .  S
O709       Ni714   1.925       .  S
C711        O712   1.267       .  A
C711        C731   1.458       .  S
C716        C741   1.470       .  S
C716        C721   1.409       .  A
C717        C718   1.400       .  A
C717        H722   1.084       .  S
C718        C735   1.469       .  S
C719        C720   1.398       .  A
C719        H723   1.085       .  S
C720        C729   1.473       .  S
C721        H724   1.084       .  S
C725        N730   1.352       .  A
N726        C727   1.362   1_545  A
C727        N728   1.362       .  A
C729        N730   1.355       .  A
C731        N736   1.350       .  A
N732        C733   1.364       .  A
C733        N734   1.362       .  A
N734        C735   1.358       .  A
C737        N738   1.377       .  A
C737        N742   1.359       .  A
N738        C739   1.378       .  A
C739        N740   1.360       .  A
N740        C741   1.344       .  A
C741        N742   1.342       .  A
O743       Ni749   1.919       .  S
O743        C764   1.266       .  A
O744       Ni767   1.924       .  S
O744        C753   1.270       .  A
O745       Ni749   1.897       .  S
O745       Ni767   1.913       .  S
O745       Ni761   1.918       .  S
O745        H768   0.966       .  S
C746        O763   1.278       .  A
C746        O755   1.277       .  A
C746        C780   1.464       .  S
O747       Ni766   1.916       .  S
O747        C753   1.267       .  A
O748       Ni766   1.889       .  S
O748        C750   1.268       .  A
Ni749       O752   1.901       .  S
Ni749       O754   1.907       .  S
C750        O760   1.275       .  A
C750        C786   1.485       .  S
O751       Ni767   1.963       .  S
O751        C757   1.286       .  A
O752        C757   1.278       .  A
C753        C831   1.461       .  S
O754        C756   1.265       .  A
O755       Ni766   1.922       .  S
C756        O762   1.268       .  A
C756        C839   1.465       .  S
C757        C843   1.486       .  S
H758        O759   0.966       .  S
O759       Ni767   1.927       .  S
O759       Ni761   1.901       .  S
O759       Ni766   1.888       .  S
O760       Ni761   1.958       .  S
Ni761       O765   1.915       .  S
Ni761       O763   1.925       .  S
O762       Ni767   1.925       .  S
C764        O765   1.267       .  A
C764        C790   1.458       .  S
C769        C788   1.470       .  S
C770        H775   1.084       .  S
C771        C782   1.473       .  S
C773        C792   1.469       .  S
C773        C774   1.400   1_554  A
C774        H777   1.084       .  S
C778        C806   1.461       .  S
C778        N783   1.352       .  A
C780        N781   1.362       .  A
C782        N783   1.355       .  A
C784        C810   1.486       .  S
C784        N789   1.359       .  A
N785        C786   1.378       .  A
C786        N787   1.360       .  A
N787        C788   1.344       .  A
C790        N791   1.350       .  A
N793        C794   1.362       .  A
C794        C809   1.465       .  S
O796       Ni802   1.919       .  S
O796        C817   1.266       .  A
O797       Ni820   1.924       .  S
O797        C806   1.270       .  A
O798       Ni802   1.897       .  S
O798       Ni820   1.913       .  S
O798       Ni814   1.918       .  S
O798        H821   0.966       .  S
C799        O816   1.278       .  A
C799        O808   1.277       .  A
C799        C833   1.464       .  S
O800       Ni819   1.916       .  S
O800        C806   1.267       .  A
O801       Ni819   1.889       .  S
O801        C803   1.268       .  A
Ni802       O805   1.901       .  S
Ni802       O807   1.907       .  S
C803        O813   1.275       .  A
C803        C845   1.485       .  S
O804       Ni820   1.963       .  S
O804        C810   1.286       .  A
O805        C810   1.278       .  A
O807        C809   1.265       .  A
O808       Ni819   1.922       .  S
C809        O815   1.268       .  A
H811        O812   0.966       .  S
O812       Ni820   1.927       .  S
O812       Ni814   1.901       .  S
O812       Ni819   1.888       .  S
O813       Ni814   1.958       .  S
Ni814       O818   1.915       .  S
Ni814       O816   1.925       .  S
O815       Ni820   1.925       .  S
C817        O818   1.267       .  A
C817        C837   1.458       .  S
C822        C847   1.470       .  S
C822        C827   1.409       .  A
C823        C824   1.400       .  A
C823        H828   1.084       .  S
C824        C841   1.469       .  S
C825        C826   1.398       .  A
C825        H829   1.085       .  S
C826        C835   1.473       .  S
C827        H830   1.084       .  S
C831        N836   1.352       .  A
N832        C833   1.362   1_545  A
C833        N834   1.362       .  A
C835        N836   1.355       .  A
C837        N842   1.350       .  A
N838        C839   1.364       .  A
C839        N840   1.362       .  A
N840        C841   1.358       .  A
C843        N844   1.377       .  A
C843        N848   1.359       .  A
N844        C845   1.378       .  A
C845        N846   1.360       .  A
N846        C847   1.344       .  A
C847        N848   1.342       .  A
