geometry optimzed in LAMMPS
_audit_creation_date              2020-12-01 
_audit_creation_method            'lammps2cif' 
_symmetry_space_group_name_H-M    'P1' 
_symmetry_Int_Tables_number       1 
_symmetry_cell_setting            triclinic 
loop_ 
_symmetry_equiv_pos_as_xyz 
  x,y,z 
_cell_length_a                    39.81284345 
_cell_length_b                    40.1499690071522 
_cell_length_c                    58.729202108545266 
_cell_angle_alpha                 89.85618793752441 
_cell_angle_beta                  89.54744989006402 
_cell_angle_gamma                 90.29746037546606 
loop_ 
_atom_site_label 
_atom_site_type_symbol 
_atom_site_fract_x 
_atom_site_fract_y 
_atom_site_fract_z 
_atom_site_charge 
C1          C  0.24968728  0.03849728  0.23574235     0.85500
C2          C  0.22214902  0.03558387  0.25422250    -0.54700
C3          C  0.22437825  0.50782399  0.26748459     0.08400
C4          C  0.25362399  0.48472521  0.26098338     0.19400
C5          C  0.28257697  0.03552835  0.24916452    -0.55400
C6          C  0.28519917  0.50726778  0.26215293     0.08500
C7          C  0.24617905  0.00580271  0.22247168    -0.55000
C8          C  0.24855415  0.47781209  0.23550692     0.09100
H9          H  0.20161339  0.05271007  0.25681013     0.13600
H10         H  0.25488306  0.46173002  0.27148020    -0.00600
H11         H  0.30140579  0.05515633  0.24913311     0.13900
H12         H  0.24184008  0.50488242  0.20428246     0.13700
C13         C  0.46783024  0.26597228  0.98915059     0.01300
C14         C  0.46710035  0.26721507  0.01316355     0.01300
C15         C  0.99739942  0.26642446  0.02517538    -0.19200
C16         C  0.02831266  0.26383639  0.01369915     0.01300
C17         C  0.02905029  0.26443394  0.98971024     0.01300
C18         C  0.99887902  0.26584237  0.97770477    -0.19200
H19         H  0.99953759  0.26578075  0.95923654     0.03300
H20         H  0.99680672  0.26680284  0.04364086     0.03300
C21         C  0.24885071  0.04077509  0.76383037     0.85500
C22         C  0.27920056  0.03557425  0.74772820    -0.54700
C23         C  0.27838884  0.50652693  0.73574418     0.08400
C24         C  0.24775967  0.48432963  0.74144179     0.19400
C25         C  0.21821754  0.03623534  0.74827106    -0.55400
C26         C  0.21728264  0.50678537  0.73663467     0.08500
C27         C  0.24918036  0.00966651  0.77902108    -0.55000
C28         C  0.24810296  0.48041924  0.76750700     0.09100
H29         H  0.29999426  0.05294386  0.74544781     0.13600
H30         H  0.24728281  0.46012704  0.73237604    -0.00600
H31         H  0.19872619  0.05492150  0.74670997     0.13900
H32         H  0.24976568  0.51079402  0.79752614     0.13700
C33         C  0.00077202  0.20637731  0.73749385     0.85500
C34         C  0.03201300  0.21105597  0.75261690    -0.54700
C35         C  0.03361982  0.24075456  0.76381828     0.08400
C36         C  0.00230972  0.26263509  0.76010808     0.19400
C37         C  0.47162980  0.21046359  0.75454542    -0.55400
C38         C  0.47216495  0.23983373  0.76625558     0.08500
C39         C  0.00003108  0.23766782  0.72246031    -0.55000
C40         C  0.00054978  0.26685193  0.73416949     0.09100
H41         H  0.05035793  0.19210934  0.75602313     0.13600
H42         H  0.00262432  0.28661164  0.76949196    -0.00600
H43         H  0.45223643  0.19170052  0.75720517     0.13900
H44         H  0.99894354  0.23682189  0.70398773     0.13700
C45         C  0.25069309  0.47859748  0.98866603     0.01300
C46         C  0.25052198  0.47828927  0.01272823     0.01300
C47         C  0.25066088  0.00852268  0.02468207    -0.19200
C48         C  0.25029134  0.03918815  0.01314174     0.01300
C49         C  0.24849555  0.03948686  0.98916477     0.01300
C50         C  0.24900720  0.00924116  0.97722623    -0.19200
H51         H  0.24828798  0.00961152  0.95877030     0.03300
H52         H  0.25087266  0.00822038  0.04314735     0.03300
N53         N  0.23382931  0.33111081  0.90376847    -0.07100
N54         N  0.22265936  0.35119670  0.91989913    -0.59200
N55         N  0.26642539  0.33075981  0.85098805    -0.06800
N56         N  0.27801192  0.35156059  0.83533085    -0.61300
N57         N  0.23336452  0.33106002  0.85141219    -0.06400
N58         N  0.22196768  0.35204691  0.83597074    -0.59200
N59         N  0.26684977  0.33131652  0.90321178    -0.06000
N60         N  0.27875746  0.35155493  0.91893574    -0.61700
C61         C  0.25094905  0.36354530  0.92943869     0.95100
C62         C  0.25009551  0.36452501  0.82586723     0.94900
N63         N  0.32335924  0.24202736  0.85175027    -0.07300
N64         N  0.34602316  0.22988752  0.83756350    -0.61800
N65         N  0.32185452  0.27575360  0.90335430    -0.05400
N66         N  0.34134365  0.28772469  0.91947211    -0.61000
N67         N  0.32173916  0.24299719  0.90379197    -0.07300
N68         N  0.34135708  0.23205197  0.92018390    -0.60100
N69         N  0.32347990  0.27480765  0.85101174    -0.05000
N70         N  0.34622905  0.28553283  0.83609053    -0.61100
Mn71       Mn  0.29524424  0.30379034  0.87697298     1.18400
C72         C  0.35979146  0.25716367  0.82764402     0.97200
C73         C  0.35308151  0.26025269  0.93003171     0.97800
N74         N  0.17591406  0.27550616  0.85244905    -0.07300
N75         N  0.15394266  0.28689271  0.83759310    -0.63600
N76         N  0.17735134  0.24238742  0.90447543    -0.06100
N77         N  0.15728140  0.23092544  0.92074250    -0.64300
N78         N  0.17782207  0.27513410  0.90456513    -0.06800
N79         N  0.15817434  0.28652928  0.92091537    -0.63900
N80         N  0.17635009  0.24271710  0.85221037    -0.05700
N81         N  0.15500441  0.23115538  0.83701553    -0.64600
Mn82       Mn  0.20460430  0.30386040  0.87801850     1.10700
C83         C  0.14131766  0.25893677  0.82802091     0.98400
C84         C  0.14567412  0.25873433  0.93106342     0.98500
N85         N  0.26566161  0.18700783  0.90397051    -0.06800
N86         N  0.27702176  0.16706979  0.92004244    -0.62200
N87         N  0.23285644  0.18729159  0.85162107    -0.06200
N88         N  0.22104618  0.16778476  0.83546904    -0.58900
N89         N  0.26592126  0.18716229  0.85139182    -0.07500
N90         N  0.27720096  0.16763604  0.83495139    -0.61800
N91         N  0.23265883  0.18690070  0.90403580    -0.06500
N92         N  0.22095633  0.16692424  0.92018011    -0.59000
Mn93       Mn  0.29474724  0.21410704  0.87772467     1.20200
Mn94       Mn  0.20420778  0.21414115  0.87801872     1.10100
Cl95       Cl  0.24970195  0.25899404  0.87755481    -0.86900
C96         C  0.24891699  0.15490509  0.93024481     0.95400
C97         C  0.24891191  0.15596168  0.82498449     0.95200
N98         N  0.17207326  0.23945064  0.14963772    -0.07100
N99         N  0.14986749  0.22641364  0.16394908    -0.59200
N100        N  0.17407318  0.27421800  0.09803128    -0.06800
N101        N  0.15473273  0.28549124  0.08164447    -0.61300
N102        N  0.17500779  0.24149140  0.09761182    -0.06400
N103        N  0.15623719  0.22979888  0.08103128    -0.59200
N104        N  0.17069967  0.27217022  0.15023164    -0.06000
N105        N  0.14746012  0.28188506  0.16497450    -0.61700
C106        C  0.13476507  0.25309234  0.17362366     0.95100
C107        C  0.14413626  0.25754497  0.07102110     0.94900
N108        N  0.26065346  0.33323115  0.09999686    -0.07300
N109        N  0.27208799  0.35370624  0.08405188    -0.59800
N110        N  0.22578575  0.32980421  0.15212024    -0.05400
N111        N  0.21323245  0.34902835  0.16827515    -0.61000
N112        N  0.25880964  0.33079430  0.15245839    -0.07300
N113        N  0.26925996  0.35062630  0.16886436    -0.60100
N114        N  0.22766567  0.33203479  0.09966285    -0.05000
N115        N  0.21608650  0.35172444  0.08351007    -0.61100
Mn116      Mn  0.19885881  0.30276161  0.12507750     1.18400
C117        C  0.24400859  0.36511951  0.07378887     0.97200
C118        C  0.24059956  0.36180089  0.17874209     0.97800
N119        N  0.23185323  0.18770104  0.09708987    -0.07300
N120        N  0.22099921  0.16682832  0.08142490    -0.63600
N121        N  0.26372273  0.18697857  0.14907428    -0.06100
N122        N  0.27563933  0.16629936  0.16446961    -0.64300
N123        N  0.23069009  0.18625542  0.14924222    -0.06800
N124        N  0.21943414  0.16513843  0.16478653    -0.63900
N125        N  0.26486034  0.18884180  0.09697026    -0.05700
N126        N  0.27705435  0.16859802  0.08125532    -0.64600
Mn127      Mn  0.20184115  0.21313976  0.12347051     1.10700
C128        C  0.24935706  0.15532430  0.07141607     0.98400
C129        C  0.24773103  0.15319520  0.17432732     0.98500
N130        N  0.31671627  0.27692976  0.15183171    -0.06800
N131        N  0.33617119  0.28774999  0.16844476    -0.62200
N132        N  0.31884257  0.24723063  0.09834093    -0.06200
N133        N  0.33935562  0.23755295  0.08190931    -0.58900
N134        N  0.31808208  0.27992249  0.09936811    -0.07500
N135        N  0.33805242  0.29304097  0.08366203    -0.61800
N136        N  0.31760362  0.24421239  0.15073499    -0.06500
N137        N  0.33749980  0.23213278  0.16655463    -0.59000
Mn138      Mn  0.28927912  0.30596478  0.12600278     1.20200
Mn139      Mn  0.29201938  0.21626321  0.12368213     1.10100
Cl140      Cl  0.24548748  0.25953824  0.12461803    -0.86900
C141        C  0.34842149  0.25942803  0.17772039     0.95400
C142        C  0.35108412  0.26639831  0.07272689     0.95200
N143        N  0.48241306  0.05851277  0.65043557    -0.07100
N144        N  0.47053833  0.07934846  0.66589220    -0.59200
N145        N  0.01785194  0.05913271  0.59870763    -0.06800
N146        N  0.03013061  0.07944272  0.58295599    -0.61300
N147        N  0.48493335  0.05900996  0.59817204    -0.06400
N148        N  0.47412218  0.07904668  0.58198418    -0.59200
N149        N  0.01540998  0.05832051  0.65080970    -0.06000
N150        N  0.02660839  0.07891637  0.66646531    -0.61700
C151        C  0.49846250  0.09162681  0.67600894     0.95100
C152        C  0.50262496  0.09139308  0.57243214     0.94900
N153        N  0.07343413  0.47090651  0.59904459    -0.07300
N154        N  0.09346119  0.45992776  0.58272488    -0.59800
N155        N  0.07136685  0.00277266  0.65167571    -0.05400
N156        N  0.09152555  0.01421512  0.66763624    -0.61000
N157        N  0.07193437  0.47004356  0.65130955    -0.07300
N158        N  0.09279454  0.45856467  0.66684965    -0.60100
N159        N  0.07323600  0.00354461  0.59928243    -0.05000
N160        N  0.09318559  0.01548515  0.58317330    -0.61100
Mn161      Mn  0.04512019  0.03152602  0.62517991     1.18400
C162        C  0.10540931  0.48808553  0.57279925     0.97200
C163        C  0.10429101  0.48641405  0.67718106     0.97800
N164        N  0.42922535  0.00347232  0.59685305    -0.07300
N165        N  0.40988205  0.01533937  0.58064492    -0.63600
N166        N  0.42496647  0.46966883  0.64873904    -0.06100
N167        N  0.40159506  0.45849031  0.66307865    -0.64300
N168        N  0.42584990  0.00240797  0.64886635    -0.06800
N169        N  0.40323527  0.01403689  0.66322730    -0.63900
N170        N  0.42893440  0.47072605  0.59658777    -0.05700
N171        N  0.40937939  0.45971570  0.58019611    -0.64600
Mn172      Mn  0.45501521  0.03142310  0.62366397     1.10700
C173        C  0.39791298  0.48777755  0.57017646     0.98400
C174        C  0.38833390  0.48657279  0.67218389     0.98500
N175        N  0.01491228  0.41455391  0.65014761    -0.06800
N176        N  0.02534498  0.39415530  0.66623082    -0.62200
N177        N  0.48479593  0.41479993  0.59722200    -0.06200
N178        N  0.47437694  0.39424594  0.58117108    -0.58900
N179        N  0.01793408  0.41504500  0.59791370    -0.07500
N180        N  0.03050762  0.39474820  0.58242073    -0.61800
N181        N  0.48177614  0.41458668  0.64951286    -0.06500
N182        N  0.46918780  0.39429977  0.66510360    -0.59000
Mn183      Mn  0.04523508  0.44195321  0.62466972     1.20200
Mn184      Mn  0.45447096  0.44171129  0.62300584     1.10100
Cl185      Cl  0.49990394  0.48662952  0.62423478    -0.86900
C186        C  0.49646144  0.38176630  0.67558271     0.95400
C187        C  0.50308676  0.38179635  0.57203563     0.95200
N188        N  0.07412999  0.47186896  0.35041390    -0.07100
N189        N  0.09723452  0.46177131  0.33572423    -0.59200
N190        N  0.07321245  0.00090689  0.40344050    -0.06800
N191        N  0.09413025  0.01115788  0.41932696    -0.61300
N192        N  0.07306183  0.46817179  0.40235083    -0.06400
N193        N  0.09385361  0.45562836  0.41749135    -0.59200
N194        N  0.07411015  0.00457508  0.35159409    -0.06000
N195        N  0.09709437  0.01728018  0.33778539    -0.61700
C196        C  0.11103825  0.49044181  0.32774193     0.95100
C197        C  0.10683776  0.48262432  0.42806836     0.94900
N198        N  0.48443986  0.05687142  0.40493949    -0.07300
N199        N  0.47279251  0.07663058  0.42106818    -0.59800
N200        N  0.01745745  0.06031984  0.35261250    -0.05400
N201        N  0.02862192  0.08214620  0.33739418    -0.61000
N202        N  0.48436024  0.05955486  0.35258617    -0.07300
N203        N  0.47238098  0.08043934  0.33732621    -0.60100
N204        N  0.01745673  0.05694601  0.40499653    -0.05000
N205        N  0.02885931  0.07683888  0.42110831    -0.61100
Mn206      Mn  0.04613501  0.03133216  0.37815371     1.18400
C207        C  0.50073252  0.08874217  0.43123193     0.97200
C208        C  0.50016558  0.09411608  0.32780271     0.97800
N209        N  0.01643318  0.41270917  0.40098285    -0.07300
N210        N  0.02745669  0.39245765  0.41704852    -0.63600
N211        N  0.48346655  0.41679283  0.34856650    -0.06100
N212        N  0.47147700  0.39878629  0.33169713    -0.64300
N213        N  0.01647709  0.41659997  0.34826113    -0.06800
N214        N  0.02750188  0.39834356  0.33109225    -0.63900
N215        N  0.48339264  0.41288823  0.40092443    -0.05700
N216        N  0.47129903  0.39280984  0.41685231    -0.64600
Mn217      Mn  0.04564449  0.44151018  0.37541085     1.10700
C218        C  0.49896237  0.38038744  0.42700084     0.98400
C219        C  0.49914158  0.38761260  0.32070088     0.98500
N220        N  0.42793166  0.00444885  0.35142633    -0.06800
N221        N  0.40729650  0.01710674  0.33621873    -0.62200
N222        N  0.42852887  0.46841573  0.40280460    -0.06200
N223        N  0.40904595  0.45600963  0.41901215    -0.58900
N224        N  0.42886255  0.00114003  0.40369117    -0.07500
N225        N  0.40963497  0.01168717  0.42051890    -0.61800
N226        N  0.42721143  0.47171613  0.35068511    -0.06500
N227        N  0.40575486  0.46141708  0.33510318    -0.59000
Mn228      Mn  0.45581384  0.03109476  0.37815485     1.20200
Mn229      Mn  0.45503973  0.44172072  0.37569327     1.10100
Cl230      Cl  0.50073887  0.48641249  0.37680177    -0.86900
C231        C  0.39383638  0.49004196  0.32611787     0.95400
C232        C  0.39774673  0.48327024  0.43012121     0.95200
C233        C  0.49888101  0.26731350  0.51204958     0.01300
C234        C  0.49594471  0.26674037  0.48805512     0.01300
C235        C  0.49574456  0.23584184  0.47679422    -0.19200
C236        C  0.49809775  0.20562617  0.48881084     0.01300
C237        C  0.50121393  0.20624006  0.51276296     0.01300
C238        C  0.50115653  0.23709957  0.52404154    -0.19200
H239        H  0.50283960  0.23764272  0.54245806     0.03300
H240        H  0.99443244  0.23525265  0.45836330     0.03300
C241        C  0.28179978  0.48868432  0.51244739     0.01300
C242        C  0.28174904  0.48458619  0.48865416     0.01300
C243        C  0.25115955  0.48348583  0.47705528    -0.19200
C244        C  0.22053920  0.48588910  0.48878835     0.01300
C245        C  0.22049866  0.48966609  0.51270754     0.01300
C246        C  0.25122246  0.49073084  0.52426477    -0.19200
H247        H  0.25135952  0.49278347  0.54267469     0.03300
H248        H  0.25118821  0.48101023  0.45866540     0.03300
C249        C  0.49111554  0.21062248  0.26793809     0.85500
C250        C  0.45903910  0.21434777  0.25359144    -0.54700
C251        C  0.45988769  0.24050910  0.23856667     0.08400
C252        C  0.49241782  0.26150181  0.23979577     0.19400
C253        C  0.02040724  0.21021268  0.25075503    -0.55400
C254        C  0.02120514  0.23643364  0.23590139     0.08500
C255        C  0.49400978  0.24486761  0.27961724    -0.55000
C256        C  0.49505645  0.27122765  0.26501801     0.09100
H257        H  0.43743215  0.19788952  0.25521805     0.13600
H258        H  0.49289344  0.28318780  0.22801833    -0.00600
H259        H  0.03971518  0.19121812  0.25101838     0.13900
H260        H  0.49375973  0.24904742  0.29781471     0.13700
C261        C  0.02825822  0.34451885  0.29773978    -0.10100
C262        C  0.49860846  0.36220309  0.30229972     0.06100
C263        C  0.46888092  0.35282308  0.29071159    -0.03900
C264        C  0.46885745  0.32455864  0.27670068    -0.08300
C265        C  0.49793231  0.30548530  0.27389585     0.05200
C266        C  0.02802866  0.31627612  0.28390261    -0.03400
Br267      Br  0.06890791  0.29162110  0.28053018    -0.03100
H268        H  0.05148515  0.35142153  0.30600771     0.09100
H269        H  0.44557198  0.31630175  0.26906255     0.07100
Br270      Br  0.42718803  0.37646148  0.29352679    -0.03500
C271        C  0.48757639  0.11955878  0.29016484    -0.10100
C272        C  0.49896089  0.12318273  0.31249831     0.06100
C273        C  0.00740329  0.15491325  0.32046861    -0.03900
C274        C  0.00434645  0.18259060  0.30621178    -0.08300
C275        C  0.49223609  0.17983047  0.28366381     0.05200
C276        C  0.48494819  0.14718424  0.27558524    -0.03400
Br277      Br  0.47279456  0.13761006  0.24466803    -0.03100
H278        H  0.48125176  0.09497186  0.28389419     0.09100
H279        H  0.01276961  0.20596410  0.31308899     0.07100
Br280      Br  0.02225115  0.16205316  0.35112013    -0.03500
C281        C  0.47054906  0.13495545  0.45033287    -0.10100
C282        C  0.50013729  0.11624542  0.44815660     0.06100
C283        C  0.02842603  0.12563793  0.46121156    -0.03900
C284        C  0.02719100  0.15442872  0.47471343    -0.08300
C285        C  0.49805154  0.17397057  0.47574159     0.05200
C286        C  0.46932864  0.16341795  0.46391779    -0.03400
Br287      Br  0.42741231  0.18645401  0.46625783    -0.03100
H288        H  0.44827019  0.12795672  0.44098422     0.09100
H289        H  0.04918626  0.16187004  0.48422623     0.07100
Br290      Br  0.06902076  0.10002525  0.46205092    -0.03500
C291        C  0.46966757  0.33207546  0.44476937    -0.10100
C292        C  0.49771156  0.35344681  0.44439206     0.06100
C293        C  0.02401346  0.34766568  0.45996173    -0.03900
C294        C  0.02259709  0.31989486  0.47448144    -0.08300
C295        C  0.49502764  0.29774478  0.47411823     0.05200
C296        C  0.46819082  0.30446324  0.45928802    -0.03400
Br297      Br  0.42867997  0.27700682  0.45807409    -0.03100
H298        H  0.44903124  0.33625108  0.43321062     0.09100
H299        H  0.04336884  0.31520443  0.48582778     0.07100
Br300      Br  0.06162985  0.37725548  0.46303947    -0.03500
C301        C  0.14429824  0.01229674  0.45516217    -0.10100
C302        C  0.13418416  0.48185777  0.44524056     0.06100
C303        C  0.15191125  0.45249165  0.45105637    -0.03900
C304        C  0.17908550  0.45427267  0.46599312    -0.08300
C305        C  0.18931966  0.48467920  0.47533361     0.05200
C306        C  0.17175117  0.01395514  0.46983234    -0.03400
Br307      Br  0.18604687  0.05686823  0.48035078    -0.03100
H308        H  0.13149256  0.03519244  0.45092305     0.09100
H309        H  0.19298329  0.43186515  0.46990971     0.07100
Br310      Br  0.14257606  0.40929761  0.43856249    -0.03500
C311        C  0.34949396  0.45449511  0.44838585    -0.10100
C312        C  0.37105928  0.48228590  0.44761634     0.06100
C313        C  0.36485298  0.50940986  0.46227599    -0.03900
C314        C  0.33576696  0.50960275  0.47567117    -0.08300
C315        C  0.31331610  0.48259858  0.47542428     0.05200
C316        C  0.32093288  0.45437905  0.46227330    -0.03400
Br317      Br  0.29336051  0.41500271  0.46291964    -0.03100
H318        H  0.35422389  0.43310820  0.43764709     0.09100
H319        H  0.33044540  0.53112277  0.48613448     0.07100
Br320      Br  0.39552298  0.04627256  0.46561050    -0.03500
C321        C  0.16694645  0.46361894  0.52596459    -0.10100
C322        C  0.18903053  0.49095490  0.52624307     0.06100
C323        C  0.18200870  0.51800762  0.54071430    -0.03900
C324        C  0.15386643  0.51695735  0.55496723    -0.08300
C325        C  0.13245425  0.48907959  0.55543540     0.05200
C326        C  0.13872971  0.46250749  0.54029662    -0.03400
Br327      Br  0.10961041  0.42447301  0.53782405    -0.03100
H328        H  0.17215797  0.44261272  0.51497947     0.09100
H329        H  0.14942943  0.53770525  0.56633802     0.07100
Br330      Br  0.21004636  0.55697061  0.54203319    -0.03500
C331        C  0.33277334  0.46055298  0.52703686    -0.10100
C332        C  0.31340040  0.48947785  0.52546183     0.06100
C333        C  0.32446094  0.51877871  0.53615300    -0.03900
C334        C  0.35285624  0.51802230  0.54992345    -0.08300
C335        C  0.37114460  0.48846783  0.55284614     0.05200
C336        C  0.36184805  0.45996872  0.54022513    -0.03400
Br337      Br  0.38833370  0.92008379  0.53917196    -0.03100
H338        H  0.32516292  0.43831473  0.51797894     0.09100
H339        H  0.36019132  0.54056913  0.55871054     0.07100
Br340      Br  0.30250164  0.56064850  0.53159626    -0.03500
C341        C  0.03004293  0.14142663  0.55562092    -0.10100
C342        C  0.50344455  0.11846607  0.55524645     0.06100
C343        C  0.47747081  0.12300072  0.53931292    -0.03900
C344        C  0.47737493  0.15139841  0.52541381    -0.08300
C345        C  0.50332228  0.17516977  0.52654714     0.05200
C346        C  0.03029081  0.16944539  0.54142622    -0.03400
Br347      Br  0.06855903  0.19866349  0.54270884    -0.03100
H348        H  0.05056207  0.13804413  0.56739198     0.09100
H349        H  0.45666502  0.15513849  0.51386433     0.07100
Br350      Br  0.44238898  0.09067995  0.53488265    -0.03500
C351        C  0.47378324  0.34597718  0.54378479    -0.10100
C352        C  0.50387733  0.35454084  0.55480424     0.06100
C353        C  0.03307237  0.33536564  0.55005306    -0.03900
C354        C  0.03097252  0.30784050  0.53549695    -0.08300
C355        C  0.50046462  0.29879248  0.52526626     0.05200
C356        C  0.47183099  0.31832355  0.52935596    -0.03400
Br357      Br  0.42877593  0.30661124  0.51737114    -0.03100
H358        H  0.45119031  0.36018627  0.54698498     0.09100
H359        H  0.05306994  0.29273148  0.53259778     0.07100
Br360      Br  0.07603578  0.34295828  0.56383418    -0.03500
C361        C  0.06432334  0.27244396  0.21658720    -0.10100
C362        C  0.04887275  0.24109440  0.21886933     0.06100
C363        C  0.06091996  0.21455466  0.20539602    -0.03900
C364        C  0.08890669  0.21922492  0.19119073    -0.08300
C365        C  0.10519349  0.25028344  0.18934586     0.05200
C366        C  0.09210053  0.27731559  0.20202861    -0.03400
Br367      Br  0.11111508  0.32129310  0.20112287    -0.03100
H368        H  0.05525508  0.29319115  0.22661369     0.09100
H369        H  0.09754971  0.19832747  0.18114056     0.07100
Br370      Br  0.03875630  0.17200573  0.20394000    -0.03500
C371        C  0.40893597  0.25453496  0.18487901    -0.10100
C372        C  0.37652202  0.25832487  0.19379685     0.06100
C373        C  0.37151446  0.25730295  0.21751386    -0.03900
C374        C  0.39900623  0.25221710  0.23193828    -0.08300
C375        C  0.43160888  0.24796078  0.22297086     0.05200
C376        C  0.43632076  0.24927373  0.19914588    -0.03400
Br377      Br  0.47858696  0.24057892  0.18466916    -0.03100
H378        H  0.41278884  0.25448622  0.16658568     0.09100
H379        H  0.39487268  0.25108857  0.25018006     0.07100
Br380      Br  0.32746702  0.26117664  0.23066318    -0.03500
C381        C  0.27896504  0.10776557  0.05304325    -0.10100
C382        C  0.25010143  0.12773052  0.05456610     0.06100
C383        C  0.22211100  0.11955714  0.04089562    -0.03900
C384        C  0.22283302  0.09102761  0.02721112    -0.08300
C385        C  0.25113335  0.07042490  0.02658681     0.05200
C386        C  0.27963281  0.07939097  0.03924166    -0.03400
Br387      Br  0.32016880  0.05376156  0.03793659    -0.03100
H388        H  0.30089719  0.11368810  0.06307935     0.09100
H389        H  0.20099123  0.08462111  0.01721556     0.07100
Br390      Br  0.18249974  0.14657078  0.03938707    -0.03500
C391        C  0.21770638  0.43643787  0.03463373    -0.10100
C392        C  0.24888796  0.44699151  0.02606902     0.06100
C393        C  0.27787996  0.42917963  0.03183852    -0.03900
C394        C  0.27543771  0.40182030  0.04662178    -0.08300
C395        C  0.24430097  0.39171582  0.05600920     0.05200
C396        C  0.21499592  0.40898077  0.04926083    -0.03400
Br397      Br  0.17043444  0.39825948  0.05977392    -0.03100
H398        H  0.19530256  0.45015835  0.03021377     0.09100
H399        H  0.29825340  0.38899246  0.05126582     0.07100
Br400      Br  0.32146012  0.44248877  0.02096733    -0.03500
C401        C  0.27644387  0.09069373  0.97424908    -0.10100
C402        C  0.24742945  0.07097424  0.97603646     0.06100
C403        C  0.21824184  0.08075538  0.96453954    -0.03900
C404        C  0.21891108  0.10900345  0.95056158    -0.08300
C405        C  0.24850913  0.12790393  0.94761980     0.05200
C406        C  0.27724488  0.11904437  0.96031115    -0.03400
Br407      Br  0.31822646  0.14449725  0.95998332    -0.03100
H408        H  0.29880459  0.08360476  0.98343946     0.09100
H409        H  0.19636515  0.11551587  0.94139687     0.07100
Br410      Br  0.17693773  0.05620045  0.96742710    -0.03500
C411        C  0.27893981  0.41313010  0.94614383    -0.10100
C412        C  0.25160388  0.39083602  0.94644951     0.06100
C413        C  0.22503266  0.39638690  0.96207365    -0.03900
C414        C  0.22545547  0.42466349  0.97601618    -0.08300
C415        C  0.25221446  0.44751424  0.97503029     0.05200
C416        C  0.27936796  0.44126850  0.96012802    -0.03400
Br417      Br  0.31762501  0.47049774  0.95807515    -0.03100
H418        H  0.29972425  0.40928492  0.93444426     0.09100
H419        H  0.20440706  0.42917019  0.98735777     0.07100
Br420      Br  0.18806601  0.36592724  0.96588874    -0.03500
C421        C  0.47039408  0.13956122  0.69498944    -0.10100
C422        C  0.49846447  0.11870481  0.69314942     0.06100
C423        C  0.02670548  0.12554115  0.70671880    -0.03900
C424        C  0.02671746  0.15299361  0.72121474    -0.08300
C425        C  0.49892442  0.17460822  0.72300235     0.05200
C426        C  0.47045660  0.16735504  0.70939405    -0.03400
Br427      Br  0.43131658  0.19524529  0.70832290    -0.03100
H428        H  0.44860733  0.13500704  0.68450347     0.09100
H429        H  0.04958701  0.15734952  0.73021972     0.07100
Br430      Br  0.06663737  0.09875297  0.70677890    -0.03500
C431        C  0.02645291  0.34482562  0.70245575    -0.10100
C432        C  0.49565591  0.35483312  0.69295827     0.06100
C433        C  0.46603039  0.33693757  0.69894006    -0.03900
C434        C  0.46796515  0.30948970  0.71358924    -0.08300
C435        C  0.49879277  0.29916312  0.72232929     0.05200
C436        C  0.02821378  0.31714520  0.71681940    -0.03400
Br437      Br  0.07157478  0.30337725  0.72691957    -0.03100
H438        H  0.04952531  0.35786053  0.69812311     0.09100
H439        H  0.44545345  0.29517720  0.71742341     0.07100
Br440      Br  0.42238741  0.34617669  0.68679886    -0.03500
C441        C  0.12129582  0.24468184  0.78955240    -0.10100
C442        C  0.11438075  0.25827063  0.81094640     0.06100
C443        C  0.08150935  0.26887678  0.81605855    -0.03900
C444        C  0.05578294  0.26424747  0.80016573    -0.08300
C445        C  0.06230936  0.24930924  0.77899030     0.05200
C446        C  0.09595066  0.24072719  0.77342921    -0.03400
Br447      Br  0.10991918  0.22475385  0.74398596    -0.03100
H448        H  0.14667465  0.23706828  0.78535449     0.09100
H449        H  0.03034807  0.27099204  0.80483465     0.07100
Br450      Br  0.06999320  0.28720251  0.84518902    -0.03500
C451        C  0.41986806  0.26973948  0.77746896    -0.10100
C452        C  0.44582792  0.24785586  0.78327526     0.06100
C453        C  0.44406779  0.23057767  0.80411367    -0.03900
C454        C  0.41612374  0.23445432  0.81844758    -0.08300
C455        C  0.38965237  0.25568571  0.81247779     0.05200
C456        C  0.39184156  0.27370961  0.79188191    -0.03400
Br457      Br  0.35567756  0.30104815  0.78157197    -0.03100
H458        H  0.42068339  0.28258603  0.76122422     0.09100
H459        H  0.41495585  0.22059034  0.83429066     0.07100
Br460      Br  0.47919714  0.20111921  0.81348327    -0.03500
C461        C  0.32108710  0.46864069  0.71785564    -0.10100
C462        C  0.30389022  0.49910080  0.71785406     0.06100
C463        C  0.31217749  0.02295436  0.70104224    -0.03900
C464        C  0.33933085  0.01775345  0.68640453    -0.08300
C465        C  0.35821323  0.48844512  0.68731078     0.05200
C466        C  0.34788764  0.46296245  0.70257649    -0.03400
Br467      Br  0.36986306  0.42068497  0.70417211    -0.03100
H468        H  0.31431826  0.44960981  0.73020209     0.09100
H469        H  0.34547916  0.03698129  0.67406168     0.07100
Br470      Br  0.28599570  0.06242550  0.69624159    -0.03500
C471        C  0.15560578  0.50352513  0.72979655    -0.10100
C472        C  0.18845447  0.49755964  0.72177339     0.06100
C473        C  0.19268858  0.48466722  0.69952618    -0.03900
C474        C  0.16462439  0.47945667  0.68570053    -0.08300
C475        C  0.13222543  0.48705876  0.69346401     0.05200
C476        C  0.12769750  0.49842130  0.71585492    -0.03400
Br477      Br  0.08382192  0.00705616  0.72799521    -0.03100
H478        H  0.15164207  0.01272366  0.74689103     0.09100
H479        H  0.16826855  0.47093245  0.66836423     0.07100
Br480      Br  0.23571425  0.47674481  0.68578247    -0.03500
C481        C  0.22190863  0.10590931  0.80852457    -0.10100
C482        C  0.24811410  0.12925604  0.80759700     0.06100
C483        C  0.27309900  0.12574112  0.79069898    -0.03900
C484        C  0.27262021  0.09807864  0.77617403    -0.08300
C485        C  0.24755699  0.07306737  0.77798520     0.05200
C486        C  0.22124828  0.07832585  0.79406729    -0.03400
Br487      Br  0.18354686  0.04872058  0.79800633    -0.03100
H488        H  0.20205498  0.10853870  0.82115879     0.09100
H489        H  0.29250969  0.09684663  0.76345242     0.07100
Br490      Br  0.30750335  0.15878405  0.78584875    -0.03500
C491        C  0.27772924  0.43126099  0.78285458    -0.10100
C492        C  0.24755706  0.44824534  0.77969367     0.06100
C493        C  0.21822930  0.43665213  0.79064189    -0.03900
C494        C  0.21951024  0.40866914  0.80481388    -0.08300
C495        C  0.24996759  0.39210735  0.80885622     0.05200
C496        C  0.27935917  0.40362635  0.79741638    -0.03400
Br497      Br  0.32293871  0.38423235  0.80113895    -0.03100
H498        H  0.30047536  0.44044516  0.77469524     0.09100
H499        H  0.19663112  0.40059598  0.81331231     0.07100
Br500      Br  0.17602916  0.45887804  0.78736231    -0.03500
C501        C  0.08452808  0.28503614  0.02515373    -0.10100
C502        C  0.05938259  0.26056863  0.02709968     0.06100
C503        C  0.06413295  0.23333852  0.04188113    -0.03900
C504        C  0.09289452  0.23189984  0.05524388    -0.08300
C505        C  0.11727444  0.25720035  0.05404274     0.05200
C506        C  0.11363792  0.28319550  0.03815050    -0.03400
Br507      Br  0.14823277  0.31576024  0.03267165    -0.03100
H508        H  0.08139633  0.30585418  0.01365694     0.09100
H509        H  0.09558432  0.21150423  0.06719725     0.07100
Br510      Br  0.03228294  0.19743059  0.04444481    -0.03500
C511        C  0.42139116  0.29744755  0.03329139    -0.10100
C512        C  0.43531216  0.26716825  0.02629005     0.06100
C513        C  0.42000064  0.23716377  0.03306917    -0.03900
C514        C  0.39183630  0.23768405  0.04737991    -0.08300
C515        C  0.37827228  0.26791046  0.05522115     0.05200
C516        C  0.39274491  0.29819360  0.04727630    -0.03400
Br517      Br  0.37535793  0.34152272  0.05445296    -0.03100
H518        H  0.43306916  0.32065160  0.02795109     0.09100
H519        H  0.38112559  0.21412971  0.05287853     0.07100
Br520      Br  0.43766519  0.19484215  0.02401947    -0.03500
C521        C  0.10215265  0.29002864  0.95220938    -0.10100
C522        C  0.11838516  0.25948578  0.94842498     0.06100
C523        C  0.10653815  0.23080940  0.96018188    -0.03900
C524        C  0.07783353  0.23296855  0.97408288    -0.08300
C525        C  0.06082730  0.26322602  0.97661383     0.05200
C526        C  0.07362080  0.29200878  0.96601039    -0.03400
Br527      Br  0.05289418  0.33467699  0.96994600    -0.03100
H528        H  0.11096721  0.31252516  0.94383462     0.09100
H529        H  0.06837334  0.21086276  0.98265589     0.07100
Br530      Br  0.12815983  0.18819540  0.95852924    -0.03500
C531        C  0.41344921  0.28929612  0.97577776    -0.10100
C532        C  0.43682569  0.26329288  0.97553193     0.06100
C533        C  0.43105098  0.23542040  0.96153560    -0.03900
C534        C  0.40282643  0.23439538  0.94763003    -0.08300
C535        C  0.37998479  0.26087873  0.94721448     0.05200
C536        C  0.38498092  0.28817689  0.96197509    -0.03400
Br537      Br  0.35350534  0.32407211  0.96474954    -0.03100
H538        H  0.41766997  0.31088142  0.98639622     0.09100
H539        H  0.39937856  0.21317572  0.93652093     0.07100
Br540      Br  0.46102705  0.19808731  0.96054569    -0.03500
C541        C  0.30737689  0.48822633  0.29963297    -0.10100
C542        C  0.31406757  0.50081347  0.27767593     0.06100
C543        C  0.34789604  0.00783229  0.27149204    -0.03900
C544        C  0.37354121  0.00377263  0.28743690    -0.08300
C545        C  0.36653608  0.49183493  0.30937541     0.05200
C546        C  0.33324804  0.48355485  0.31535147    -0.03400
Br547      Br  0.32173391  0.46772402  0.34526766    -0.03100
H548        H  0.28177921  0.48292139  0.30491561     0.09100
H549        H  0.39921303  0.00980110  0.28265585     0.07100
Br550      Br  0.36178552  0.02095604  0.24143531    -0.03500
C551        C  0.17734221  0.47303306  0.28224258    -0.10100
C552        C  0.19869985  0.50054574  0.28507670     0.06100
C553        C  0.19183920  0.02362394  0.30243627    -0.03900
C554        C  0.16357769  0.01934791  0.31634041    -0.08300
C555        C  0.14135542  0.49254286  0.31309291     0.05200
C556        C  0.14855053  0.46906558  0.29589837    -0.03400
Br557      Br  0.11817035  0.43356101  0.28842361    -0.03100
H558        H  0.18191831  0.45574722  0.26843257     0.09100
H559        H  0.15871256  0.03747798  0.32957941     0.07100
Br560      Br  0.21989562  0.06193601  0.30757502    -0.03500
C561        C  0.22500696  0.09463580  0.22275435    -0.10100
C562        C  0.24919193  0.06920923  0.22010971     0.06100
C563        C  0.27327939  0.07295473  0.20228615    -0.03900
C564        C  0.27286842  0.10101115  0.18821709    -0.08300
C565        C  0.24828183  0.12548655  0.19075196     0.05200
C566        C  0.22413266  0.12214784  0.20817186    -0.03400
Br567      Br  0.19003116  0.15499708  0.21353899    -0.03100
H568        H  0.20626659  0.09402710  0.23603863     0.09100
H569        H  0.29133461  0.10312269  0.17461991     0.07100
Br570      Br  0.30698811  0.04042642  0.19514174    -0.03500
C571        C  0.21412550  0.43504198  0.21608599    -0.10100
C572        C  0.24511864  0.44438470  0.22528469     0.06100
C573        C  0.27322880  0.42410437  0.22152097    -0.03900
C574        C  0.27061008  0.39634611  0.20727607    -0.08300
C575        C  0.24011436  0.38803687  0.19664581     0.05200
C576        C  0.21120273  0.40700860  0.20207216    -0.03400
Br577      Br  0.16732995  0.39811876  0.19011142    -0.03100
H578        H  0.19231520  0.45051766  0.21907811     0.09100
H579        H  0.29300144  0.38194819  0.20382856     0.07100
Br580      Br  0.31638322  0.43483025  0.23381932    -0.03500
C581        C  0.24972754  0.53852353  0.23578374     0.85500
C582        C  0.22220297  0.53564067  0.25427430    -0.54700
C583        C  0.22434279  0.00777254  0.26743647     0.08400
C584        C  0.25361639  0.98470291  0.26094567     0.19400
C585        C  0.28262397  0.53552262  0.24918848    -0.55400
C586        C  0.28517175  0.00727184  0.26212918     0.08500
C587        C  0.24616768  0.50583036  0.22251442    -0.55000
C588        C  0.24857550  0.97778954  0.23546707     0.09100
H589        H  0.20167489  0.55277771  0.25685818     0.13600
H590        H  0.25488705  0.96170679  0.27144061    -0.00600
H591        H  0.30146997  0.55513484  0.24915199     0.13900
H592        H  0.24186810  0.00484946  0.20423788     0.13700
C593        C  0.46783460  0.76598842  0.98914940     0.01300
C594        C  0.46715187  0.76727355  0.01316253     0.01300
C595        C  0.99732443  0.76639311  0.02520130    -0.19200
C596        C  0.02826421  0.76383180  0.01375132     0.01300
C597        C  0.02904537  0.76445187  0.98975941     0.01300
C598        C  0.99889216  0.76585801  0.97773220    -0.19200
H599        H  0.99958138  0.76581906  0.95926428     0.03300
H600        H  0.99669398  0.76677239  0.04366629     0.03300
C601        C  0.24879883  0.54085641  0.76384286     0.85500
C602        C  0.27917596  0.53561365  0.74777620    -0.54700
C603        C  0.27842654  0.00647980  0.73569826     0.08400
C604        C  0.24782519  0.98425534  0.74141921     0.19400
C605        C  0.21819563  0.53634522  0.74825525    -0.55400
C606        C  0.21731331  0.00668137  0.73663749     0.08500
C607        C  0.24905443  0.50975068  0.77904343    -0.55000
C608        C  0.24822695  0.98034400  0.76748100     0.09100
H609        H  0.29999739  0.55296250  0.74550953     0.13600
H610        H  0.24735910  0.96004692  0.73236198    -0.00600
H611        H  0.19872108  0.55504517  0.74667223     0.13900
H612        H  0.24993244  0.01069985  0.79750314     0.13700
C613        C  0.00074332  0.70640073  0.73751090     0.85500
C614        C  0.03202076  0.71110811  0.75259603    -0.54700
C615        C  0.03362386  0.74079973  0.76380373     0.08400
C616        C  0.00227991  0.76264655  0.76013934     0.19400
C617        C  0.47161782  0.71048116  0.75449213    -0.55400
C618        C  0.47215206  0.73985472  0.76619851     0.08500
C619        C  0.99992308  0.73770359  0.72248753    -0.55000
C620        C  0.00044116  0.76688153  0.73420672     0.09100
H621        H  0.05039668  0.69218517  0.75597784     0.13600
H622        H  0.00259083  0.78661812  0.76952934    -0.00600
H623        H  0.45221337  0.69172716  0.75714509     0.13900
H624        H  0.99879205  0.73686969  0.70401629     0.13700
C625        C  0.25070857  0.97855409  0.98870787     0.01300
C626        C  0.25062381  0.97823893  0.01276954     0.01300
C627        C  0.25051204  0.50857255  0.02463890    -0.19200
C628        C  0.25017785  0.53923271  0.01309470     0.01300
C629        C  0.24843608  0.53952204  0.98911687     0.01300
C630        C  0.24900204  0.50927848  0.97717921    -0.19200
H631        H  0.24832811  0.50964640  0.95872219     0.03300
H632        H  0.25068191  0.50827408  0.04310470     0.03300
N633        N  0.23381434  0.83111066  0.90375553    -0.07100
N634        N  0.22263154  0.85121256  0.91987272    -0.59200
N635        N  0.26647752  0.83073493  0.85100266    -0.06800
N636        N  0.27809782  0.85154030  0.83536201    -0.61300
N637        N  0.23341667  0.83105027  0.85140704    -0.06400
N638        N  0.22205407  0.85205623  0.83596684    -0.59200
N639        N  0.26683642  0.83130335  0.90321650    -0.06000
N640        N  0.27873062  0.85155093  0.91893960    -0.61700
C641        C  0.25091362  0.86355810  0.92942340     0.95100
C642        C  0.25020403  0.86452985  0.82588919     0.94900
N643        N  0.32337760  0.74200830  0.85175835    -0.07300
N644        N  0.34602227  0.72986506  0.83755757    -0.61800
N645        N  0.32184331  0.77572248  0.90337852    -0.05400
N646        N  0.34131780  0.78768760  0.91950573    -0.61000
N647        N  0.32172876  0.74296681  0.90380959    -0.07300
N648        N  0.34133140  0.73201533  0.92020910    -0.60100
N649        N  0.32351445  0.77478785  0.85102927    -0.05000
N650        N  0.34625722  0.78550981  0.83610133    -0.61100
Mn651      Mn  0.29525966  0.80376697  0.87699106     1.18400
C652        C  0.35980054  0.75713980  0.82763893     0.97200
C653        C  0.35304696  0.76021384  0.93006705     0.97800
N654        N  0.17594058  0.77551980  0.85240928    -0.07300
N655        N  0.15401214  0.78690897  0.83752563    -0.63600
N656        N  0.17730035  0.74241320  0.90445657    -0.06100
N657        N  0.15723434  0.73095595  0.92072880    -0.64300
N658        N  0.17776902  0.77515980  0.90453988    -0.06800
N659        N  0.15812133  0.78655945  0.92089111    -0.63900
N660        N  0.17635692  0.74273136  0.85218077    -0.05700
N661        N  0.15504097  0.73117036  0.83696599    -0.64600
Mn662      Mn  0.20460521  0.80386845  0.87799675     1.10700
C663        C  0.14139611  0.75895460  0.82794551     0.98400
C664        C  0.14562376  0.75876695  0.93104724     0.98500
N665        N  0.26562479  0.68702808  0.90396288    -0.06800
N666        N  0.27697657  0.66710220  0.92004249    -0.62200
N667        N  0.23284221  0.68733451  0.85161457    -0.06200
N668        N  0.22102596  0.66787902  0.83543804    -0.58900
N669        N  0.26590640  0.68719280  0.85138713    -0.07500
N670        N  0.27718082  0.66770413  0.83492492    -0.61800
N671        N  0.23262197  0.68693638  0.90402814    -0.06500
N672        N  0.22091051  0.66698115  0.92018045    -0.59000
Mn673      Mn  0.29473720  0.71410189  0.87772755     1.20200
Mn674      Mn  0.20418304  0.71416664  0.87800627     1.10100
Cl675      Cl  0.24969721  0.75899616  0.87755402    -0.86900
C676        C  0.24886713  0.65496135  0.93024861     0.95400
C677        C  0.24888740  0.65607043  0.82494305     0.95200
N678        N  0.17206354  0.73934685  0.14961702    -0.07100
N679        N  0.14984341  0.72630437  0.16391818    -0.59200
N680        N  0.17411194  0.77415606  0.09802366    -0.06800
N681        N  0.15475420  0.78543911  0.08165008    -0.61300
N682        N  0.17504015  0.74142976  0.09759835    -0.06400
N683        N  0.15624647  0.72974548  0.08102790    -0.59200
N684        N  0.17069197  0.77206694  0.15021784    -0.06000
N685        N  0.14744411  0.78177574  0.16495592    -0.61700
C686        C  0.13473986  0.75298166  0.17359629     0.95100
C687        C  0.14414142  0.75749772  0.07102970     0.94900
N688        N  0.26070028  0.83316761  0.10004025    -0.07300
N689        N  0.27215158  0.85364426  0.08410136    -0.59800
N690        N  0.22577770  0.82971298  0.15214287    -0.05400
N691        N  0.21322090  0.84896662  0.16828120    -0.61000
N692        N  0.25880113  0.83068984  0.15249282    -0.07300
N693        N  0.26924816  0.85053713  0.16888812    -0.60100
N694        N  0.22771310  0.83196473  0.09968810    -0.05000
N695        N  0.21615164  0.85165140  0.08352816    -0.61100
Mn696      Mn  0.19887707  0.80267998  0.12508419     1.18400
C697        C  0.24408293  0.86505295  0.07382302     0.97200
C698        C  0.24058932  0.86173708  0.17874968     0.97800
N699        N  0.23190099  0.68767896  0.09705728    -0.07300
N700        N  0.22104981  0.66684951  0.08136546    -0.63600
N701        N  0.26374965  0.68689226  0.14904285    -0.06100
N702        N  0.27567470  0.66623540  0.16444762    -0.64300
N703        N  0.23071691  0.68616316  0.14921336    -0.06800
N704        N  0.21946830  0.66506057  0.16477014    -0.63900
N705        N  0.26490878  0.68882761  0.09693861    -0.05700
N706        N  0.27710632  0.66862592  0.08119911    -0.64600
Mn707      Mn  0.20186652  0.71306463  0.12344865     1.10700
C708        C  0.24940952  0.65537838  0.07134280     0.98400
C709        C  0.24777283  0.65313635  0.17431327     0.98500
N710        N  0.31671598  0.77683221  0.15188091    -0.06800
N711        N  0.33615266  0.78763585  0.16850852    -0.62200
N712        N  0.31892013  0.74721495  0.09837265    -0.06200
N713        N  0.33948338  0.73757447  0.08195926    -0.58900
N714        N  0.31815075  0.77990394  0.09942551    -0.07500
N715        N  0.33815974  0.79305892  0.08375628    -0.61800
N716        N  0.31761296  0.74411659  0.15076569    -0.06500
N717        N  0.33749273  0.73202136  0.16659048    -0.59000
Mn718      Mn  0.28930009  0.80589065  0.12605108     1.20200
Mn719      Mn  0.29205843  0.71620622  0.12367846     1.10100
Cl720      Cl  0.24551239  0.75946555  0.12462617    -0.86900
C721        C  0.34839700  0.75930606  0.17777711     0.95400
C722        C  0.35123098  0.76644117  0.07281690     0.95200
N723        N  0.48239521  0.55849835  0.65043385    -0.07100
N724        N  0.47053850  0.57934057  0.66589101    -0.59200
N725        N  0.01792999  0.55918820  0.59872773    -0.06800
N726        N  0.03023075  0.57948531  0.58297734    -0.61300
N727        N  0.48485447  0.55897072  0.59817578    -0.06400
N728        N  0.47402154  0.57902779  0.58200671    -0.59200
N729        N  0.01542878  0.55834532  0.65082393    -0.06000
N730        N  0.02660874  0.57894006  0.66648566    -0.61700
C731        C  0.49847298  0.59161314  0.67599599     0.95100
C732        C  0.50250882  0.59137541  0.57243690     0.94900
N733        N  0.07334608  0.97080737  0.59904238    -0.07300
N734        N  0.09339345  0.95981599  0.58273429    -0.59800
N735        N  0.07137851  0.50281333  0.65169106    -0.05400
N736        N  0.09149290  0.51425663  0.66767499    -0.61000
N737        N  0.07189684  0.97000193  0.65131106    -0.07300
N738        N  0.09278001  0.95852118  0.66683696    -0.60100
N739        N  0.07332390  0.50364207  0.59930027    -0.05000
N740        N  0.09325992  0.51559766  0.58318763    -0.61100
Mn741      Mn  0.04517030  0.53158052  0.62519831     1.18400
C742        C  0.10535168  0.98796862  0.57280073     0.97200
C743        C  0.10432480  0.98637070  0.67714297     0.97800
N744        N  0.42913599  0.50346499  0.59688653    -0.07300
N745        N  0.40980967  0.51533913  0.58067137    -0.63600
N746        N  0.42505130  0.96963300  0.64870052    -0.06100
N747        N  0.40168505  0.95844080  0.66304164    -0.64300
N748        N  0.42578255  0.50244173  0.64889929    -0.06800
N749        N  0.40316919  0.51408619  0.66325521    -0.63900
N750        N  0.42903999  0.97073386  0.59654849    -0.05700
N751        N  0.40948378  0.95971693  0.58016055    -0.64600
Mn752      Mn  0.45495560  0.53141498  0.62368303     1.10700
C753        C  0.39799555  0.98777333  0.57014880     0.98400
C754        C  0.38841192  0.98651646  0.67215365     0.98500
N755        N  0.01479159  0.91458174  0.65022605    -0.06800
N756        N  0.02520546  0.89422238  0.66633871    -0.62200
N757        N  0.48493609  0.91486628  0.59713801    -0.06200
N758        N  0.47453739  0.89435912  0.58105309    -0.58900
N759        N  0.01779297  0.91496095  0.59799198    -0.07500
N760        N  0.03034752  0.89460988  0.58252734    -0.61800
N761        N  0.48189538  0.91453626  0.64943338    -0.06500
N762        N  0.46932451  0.89419012  0.66499460    -0.59000
Mn763      Mn  0.04513602  0.94190155  0.62470765     1.20200
Mn764      Mn  0.45458181  0.94170787  0.62294887     1.10100
Cl765      Cl  0.49998064  0.98665655  0.62421315    -0.86900
C766        C  0.49660954  0.88164949  0.67545818     0.95400
C767        C  0.50325724  0.88195274  0.57190248     0.95200
N768        N  0.07417910  0.97182487  0.35046057    -0.07100
N769        N  0.09728558  0.96171677  0.33577497    -0.59200
N770        N  0.07321925  0.50091402  0.40340172    -0.06800
N771        N  0.09415430  0.51113438  0.41928819    -0.61300
N772        N  0.07306712  0.96816284  0.40240392    -0.06400
N773        N  0.09386119  0.95565015  0.41755707    -0.59200
N774        N  0.07405919  0.50461843  0.35155431    -0.06000
N775        N  0.09703625  0.51733409  0.33774573    -0.61700
C776        C  0.11109666  0.99038114  0.32778806     0.95100
C777        C  0.10682413  0.98266856  0.42812550     0.94900
N778        N  0.48445260  0.55684958  0.40496429    -0.07300
N779        N  0.47280096  0.57660435  0.42109507    -0.59800
N780        N  0.01742046  0.56036128  0.35259507    -0.05400
N781        N  0.02857663  0.58221367  0.33739087    -0.61000
N782        N  0.48439849  0.55952878  0.35260759    -0.07300
N783        N  0.47242703  0.58039734  0.33733515    -0.60100
N784        N  0.01744593  0.55696190  0.40497318    -0.05000
N785        N  0.02885315  0.57685729  0.42108153    -0.61100
Mn786      Mn  0.04611330  0.53135973  0.37812645     1.18400
C787        C  0.50073857  0.58871761  0.43126115     0.97200
C788        C  0.50021694  0.59404393  0.32779904     0.97800
N789        N  0.01640918  0.91267688  0.40100243    -0.07300
N790        N  0.02740179  0.89242013  0.41707489    -0.63600
N791        N  0.48343923  0.91679721  0.34857213    -0.06100
N792        N  0.47144213  0.89875900  0.33172209    -0.64300
N793        N  0.01650687  0.91657524  0.34827455    -0.06800
N794        N  0.02753854  0.89833474  0.33109846    -0.63900
N795        N  0.48341654  0.91291745  0.40092760    -0.05700
N796        N  0.47135211  0.89283479  0.41686293    -0.64600
Mn797      Mn  0.04566201  0.94147818  0.37544765     1.10700
C798        C  0.49903476  0.88041999  0.42699275     0.98400
C799        C  0.49910158  0.88758877  0.32071855     0.98500
N800        N  0.42795951  0.50445682  0.35144110    -0.06800
N801        N  0.40730633  0.51713152  0.33625231    -0.62200
N802        N  0.42852490  0.96844274  0.40281460    -0.06200
N803        N  0.40905370  0.95604929  0.41903408    -0.58900
N804        N  0.42887371  0.50111206  0.40369591    -0.07500
N805        N  0.40963611  0.51164633  0.42052170    -0.61800
N806        N  0.42718360  0.97170702  0.35068528    -0.06500
N807        N  0.40574675  0.96139186  0.33509485    -0.59000
Mn808      Mn  0.45583872  0.53107864  0.37817350     1.20200
Mn809      Mn  0.45502793  0.94173330  0.37570113     1.10100
Cl810      Cl  0.50071862  0.98643654  0.37678294    -0.86900
C811        C  0.39383762  0.99000715  0.32608778     0.95400
C812        C  0.39775615  0.98331899  0.43013516     0.95200
C813        C  0.49903489  0.76734724  0.51202350     0.01300
C814        C  0.49612032  0.76674385  0.48802855     0.01300
C815        C  0.49588130  0.73582827  0.47678772    -0.19200
C816        C  0.49815393  0.70562372  0.48882643     0.01300
C817        C  0.50123266  0.70626658  0.51278028     0.01300
C818        C  0.50124390  0.73714510  0.52403883    -0.19200
H819        H  0.50291883  0.73771083  0.54245530     0.03300
H820        H  0.99427863  0.73528706  0.45836942     0.03300
C821        C  0.28181220  0.98869108  0.51248623     0.01300
C822        C  0.28176646  0.98470463  0.48868442     0.01300
C823        C  0.25117849  0.98370367  0.47707969    -0.19200
C824        C  0.22055627  0.98608136  0.48881626     0.01300
C825        C  0.22051022  0.98973156  0.51274400     0.01300
C826        C  0.25123250  0.99072294  0.52430605    -0.19200
H827        H  0.25136582  0.99270479  0.54271980     0.03300
H828        H  0.25120903  0.98129529  0.45868546     0.03300
C829        C  0.49120986  0.71057443  0.26795200     0.85500
C830        C  0.45910885  0.71428873  0.25362959    -0.54700
C831        C  0.45991174  0.74046078  0.23861175     0.08400
C832        C  0.49243017  0.76147749  0.23982778     0.19400
C833        C  0.02034188  0.71022989  0.25076860    -0.55400
C834        C  0.02118113  0.73643086  0.23590187     0.08500
C835        C  0.49410873  0.74481464  0.27963953    -0.55000
C836        C  0.49511033  0.77118318  0.26504954     0.09100
H837        H  0.43752484  0.69780121  0.25526014     0.13600
H838        H  0.49287199  0.78317740  0.22806234    -0.00600
H839        H  0.03964069  0.69122770  0.25106109     0.13900
H840        H  0.49388338  0.74899544  0.29783644     0.13700
C841        C  0.02826951  0.84448665  0.29775345    -0.10100
C842        C  0.49856635  0.86215881  0.30233358     0.06100
C843        C  0.46881818  0.85269344  0.29080280    -0.03900
C844        C  0.46881746  0.82442541  0.27679850    -0.08300
C845        C  0.49793595  0.80543708  0.27393661     0.05200
C846        C  0.02801417  0.81624416  0.28391622    -0.03400
Br847      Br  0.06883045  0.79146419  0.28062699    -0.03100
H848        H  0.05148154  0.85132176  0.30606555     0.09100
H849        H  0.44552396  0.81610344  0.26920359     0.07100
Br850      Br  0.42706939  0.87621984  0.29368121    -0.03500
C851        C  0.48774839  0.61948519  0.29014046    -0.10100
C852        C  0.49902550  0.62311207  0.31249884     0.06100
C853        C  0.00744878  0.65497540  0.32043478    -0.03900
C854        C  0.00435080  0.68265073  0.30617846    -0.08300
C855        C  0.49235071  0.67976907  0.28366789     0.05200
C856        C  0.48512405  0.64712012  0.27556830    -0.03400
Br857      Br  0.47300485  0.63756619  0.24464228    -0.03100
H858        H  0.48148274  0.59489361  0.28385054     0.09100
H859        H  0.01285214  0.70602027  0.31301928     0.07100
Br860      Br  0.02252891  0.66210881  0.35103319    -0.03500
C861        C  0.47056036  0.63493842  0.45036846    -0.10100
C862        C  0.50014193  0.61621630  0.44819235     0.06100
C863        C  0.02842511  0.62568200  0.46116971    -0.03900
C864        C  0.02717831  0.65447176  0.47467117    -0.08300
C865        C  0.49807770  0.67394682  0.47577809     0.05200
C866        C  0.46935196  0.66340556  0.46395240    -0.03400
Br867      Br  0.42745652  0.68648062  0.46627568    -0.03100
H868        H  0.44828159  0.62795036  0.44101602     0.09100
H869        H  0.04917107  0.66192397  0.48418271     0.07100
Br870      Br  0.06903544  0.60009262  0.46200368    -0.03500
C871        C  0.46981476  0.83204433  0.44472726    -0.10100
C872        C  0.49781907  0.85346417  0.44437165     0.06100
C873        C  0.02391295  0.84760619  0.45996745    -0.03900
C874        C  0.02245105  0.81986108  0.47450702    -0.08300
C875        C  0.49520275  0.79773681  0.47407691     0.05200
C876        C  0.46836163  0.80443339  0.45924621    -0.03400
Br877      Br  0.42884935  0.77697926  0.45805722    -0.03100
H878        H  0.44918052  0.83619625  0.43316285     0.09100
H879        H  0.04322443  0.81514228  0.48584703     0.07100
Br880      Br  0.06163865  0.87707253  0.46297929    -0.03500
C881        C  0.14432935  0.51217930  0.45512133    -0.10100
C882        C  0.13417420  0.98195270  0.44529772     0.06100
C883        C  0.15192695  0.95261118  0.45112769    -0.03900
C884        C  0.17911806  0.95443490  0.46604505    -0.08300
C885        C  0.18933444  0.98485727  0.47536653     0.05200
C886        C  0.17177556  0.51379789  0.46979577    -0.03400
Br887      Br  0.18614411  0.55669674  0.48029225    -0.03100
H888        H  0.13155289  0.53509246  0.45088571     0.09100
H889        H  0.19303625  0.93204244  0.46996875     0.07100
Br890      Br  0.14258750  0.90938502  0.43869318    -0.03500
C891        C  0.34948639  0.95457714  0.44840619    -0.10100
C892        C  0.37107464  0.98235006  0.44763755     0.06100
C893        C  0.36489353  0.00947405  0.46230331    -0.03900
C894        C  0.33581430  0.00968173  0.47570829    -0.08300
C895        C  0.31333678  0.98269907  0.47545563     0.05200
C896        C  0.32092648  0.95448108  0.46229583    -0.03400
Br897      Br  0.29330908  0.91513650  0.46292780    -0.03100
H898        H  0.35419401  0.93319169  0.43766152     0.09100
H899        H  0.33051504  0.03119921  0.48617923     0.07100
Br900      Br  0.39546032  0.54622360  0.46559576    -0.03500
C901        C  0.16700504  0.96357435  0.52599834    -0.10100
C902        C  0.18903566  0.99095419  0.52627879     0.06100
C903        C  0.18196193  0.01798563  0.54075439    -0.03900
C904        C  0.15379956  0.01689243  0.55498931    -0.08300
C905        C  0.13243406  0.98897529  0.55545604     0.05200
C906        C  0.13878676  0.96240136  0.54033167    -0.03400
Br907      Br  0.10979374  0.92426506  0.53789570    -0.03100
H908        H  0.17226750  0.94257787  0.51501566     0.09100
H909        H  0.14931707  0.03763765  0.56635408     0.07100
Br910      Br  0.20997794  0.05696064  0.54211846    -0.03500
C911        C  0.33278324  0.96052551  0.52706356    -0.10100
C912        C  0.31341294  0.98945462  0.52549834     0.06100
C913        C  0.32448799  0.01875364  0.53618177    -0.03900
C914        C  0.35290528  0.01800127  0.54992859    -0.08300
C915        C  0.37120000  0.98844973  0.55283908     0.05200
C916        C  0.36187867  0.95994219  0.54023331    -0.03400
Br917      Br  0.38831230  0.42011878  0.53916560    -0.03100
H918        H  0.32515816  0.93828808  0.51801029     0.09100
H919        H  0.36025270  0.04055077  0.55870763     0.07100
Br920      Br  0.30250918  0.06061793  0.53164672    -0.03500
C921        C  0.03010117  0.64149582  0.55564647    -0.10100
C922        C  0.50330670  0.61848233  0.55527005     0.06100
C923        C  0.47725849  0.62313358  0.53940340    -0.03900
C924        C  0.47721201  0.65153373  0.52550190    -0.08300
C925        C  0.50325672  0.67520595  0.52658111     0.05200
C926        C  0.03031755  0.66950486  0.54144260    -0.03400
Br927      Br  0.06848857  0.69884476  0.54279203    -0.03100
H928        H  0.05057395  0.63818989  0.56746509     0.09100
H929        H  0.45647157  0.65535335  0.51398919     0.07100
Br930      Br  0.44199026  0.59098190  0.53506685    -0.03500
C931        C  0.47394414  0.84607177  0.54369109    -0.10100
C932        C  0.50405890  0.85470310  0.55466223     0.06100
C933        C  0.03287143  0.83516467  0.55022480    -0.03900
C934        C  0.03078458  0.80769641  0.53562021    -0.08300
C935        C  0.50062375  0.79885357  0.52521115     0.05200
C936        C  0.47198149  0.81836805  0.52930751    -0.03400
Br937      Br  0.42890639  0.80656424  0.51739480    -0.03100
H938        H  0.45133994  0.86025676  0.54690511     0.09100
H939        H  0.05286760  0.79255870  0.53274118     0.07100
Br940      Br  0.07578106  0.84261896  0.56411854    -0.03500
C941        C  0.06434247  0.77237975  0.21658478    -0.10100
C942        C  0.04887233  0.74104297  0.21887989     0.06100
C943        C  0.06092376  0.71447472  0.20543083    -0.03900
C944        C  0.08889537  0.71912681  0.19120602    -0.08300
C945        C  0.10518401  0.75018142  0.18933595     0.05200
C946        C  0.09212012  0.77722349  0.20202319    -0.03400
Br947      Br  0.11119050  0.82117699  0.20113349    -0.03100
H948        H  0.05529199  0.79313903  0.22660724     0.09100
H949        H  0.09753306  0.69821573  0.18116708     0.07100
Br950      Br  0.03881030  0.67189220  0.20404940    -0.03500
C951        C  0.40893086  0.75464001  0.18494542    -0.10100
C952        C  0.37648888  0.75819693  0.19386238     0.06100
C953        C  0.37146344  0.75695096  0.21757308    -0.03900
C954        C  0.39896999  0.75190593  0.23199181    -0.08300
C955        C  0.43160684  0.74788495  0.22302519     0.05200
C956        C  0.43632893  0.74939232  0.19920411    -0.03400
Br957      Br  0.47863002  0.74095229  0.18470039    -0.03100
H958        H  0.41279963  0.75475047  0.16665332     0.09100
H959        H  0.39482158  0.75062024  0.25022756     0.07100
Br960      Br  0.32737932  0.76046935  0.23071607    -0.03500
C961        C  0.27894568  0.60775101  0.05300790    -0.10100
C962        C  0.25014572  0.62780919  0.05447899     0.06100
C963        C  0.22218335  0.61973674  0.04075768    -0.03900
C964        C  0.22284052  0.59118169  0.02709702    -0.08300
C965        C  0.25106696  0.57047512  0.02653213     0.05200
C966        C  0.27956296  0.57936767  0.03921529    -0.03400
Br967      Br  0.32003559  0.55363598  0.03795086    -0.03100
H968        H  0.30086185  0.61360805  0.06307751     0.09100
H969        H  0.20101273  0.58484722  0.01706666     0.07100
Br970      Br  0.18272629  0.64695500  0.03913366    -0.03500
C971        C  0.21780708  0.93639153  0.03467805    -0.10100
C972        C  0.24898916  0.94693585  0.02610852     0.06100
C973        C  0.27797632  0.92910905  0.03187256    -0.03900
C974        C  0.27552731  0.90174669  0.04665483    -0.08300
C975        C  0.24438883  0.89165316  0.05604559     0.05200
C976        C  0.21509008  0.90893244  0.04930322    -0.03400
Br977      Br  0.17052764  0.89822586  0.05982355    -0.03100
H978        H  0.19540702  0.95012190  0.03026391     0.09100
H979        H  0.29833804  0.88890606  0.05129419     0.07100
Br980      Br  0.32155813  0.94239334  0.02099064    -0.03500
C981        C  0.27638522  0.59072872  0.97422515    -0.10100
C982        C  0.24737504  0.57100252  0.97599087     0.06100
C983        C  0.21819185  0.58078100  0.96448908    -0.03900
C984        C  0.21885645  0.60905342  0.95053821    -0.08300
C985        C  0.24845234  0.62796097  0.94761608     0.05200
C986        C  0.27718940  0.61908911  0.96030108    -0.03400
Br987      Br  0.31818807  0.64451575  0.95996785    -0.03100
H988        H  0.29874210  0.58363280  0.98341765     0.09100
H989        H  0.19631510  0.61556935  0.94136939     0.07100
Br990      Br  0.17690966  0.55617503  0.96731525    -0.03500
C991        C  0.27890431  0.91312614  0.94614760    -0.10100
C992        C  0.25156026  0.89084324  0.94643925     0.06100
C993        C  0.22499164  0.89638254  0.96206851    -0.03900
C994        C  0.22543138  0.92463746  0.97603519    -0.08300
C995        C  0.25220315  0.94747697  0.97506277     0.05200
C996        C  0.27935013  0.94123802  0.96015520    -0.03400
Br997      Br  0.31763002  0.97044061  0.95813534    -0.03100
H998        H  0.29968768  0.90928795  0.93444606     0.09100
H999        H  0.20439044  0.92913568  0.98738506     0.07100
Br1000     Br  0.18801497  0.86592670  0.96585885    -0.03500
C1001       C  0.47042949  0.63957008  0.69495466    -0.10100
C1002       C  0.49848538  0.61869345  0.69313188     0.06100
C1003       C  0.02669861  0.62557840  0.70672026    -0.03900
C1004       C  0.02670958  0.65303629  0.72121107    -0.08300
C1005       C  0.49894570  0.67458501  0.72298991     0.05200
C1006       C  0.47049268  0.66735910  0.70936080    -0.03400
Br1007     Br  0.43137425  0.69527746  0.70826237    -0.03100
H1008       H  0.44865366  0.63503468  0.68445421     0.09100
H1009       H  0.04958739  0.65740678  0.73019802     0.07100
Br1010     Br  0.06665562  0.59882284  0.70676550    -0.03500
C1011       C  0.02625887  0.84501467  0.70264243    -0.10100
C1012       C  0.49582591  0.85470974  0.69282995     0.06100
C1013       C  0.46618051  0.83690485  0.69889172    -0.03900
C1014       C  0.46810410  0.80949613  0.71357455    -0.08300
C1015       C  0.49893941  0.79911536  0.72226973     0.05200
C1016       C  0.02803387  0.81729666  0.71696992    -0.03400
Br1017     Br  0.07139436  0.80361012  0.72711948    -0.03100
H1018       H  0.04931351  0.85812406  0.69837282     0.09100
H1019       H  0.44557028  0.79525344  0.71747171     0.07100
Br1020     Br  0.42250715  0.84622934  0.68683364    -0.03500
C1021       C  0.12134059  0.74472942  0.78947286    -0.10100
C1022       C  0.11444993  0.75829719  0.81087772     0.06100
C1023       C  0.08158866  0.76891249  0.81600858    -0.03900
C1024       C  0.05584175  0.76429382  0.80013186    -0.08300
C1025       C  0.06233864  0.74936751  0.77894964     0.05200
C1026       C  0.09597450  0.74080124  0.77336004    -0.03400
Br1027     Br  0.10990075  0.72490843  0.74388609    -0.03100
H1028       H  0.14671451  0.73712126  0.78525675     0.09100
H1029       H  0.03041439  0.77103810  0.80481928     0.07100
Br1030     Br  0.07011499  0.78724825  0.84514315    -0.03500
C1031       C  0.41999091  0.76992927  0.77752918    -0.10100
C1032       C  0.44583235  0.74785363  0.78324036     0.06100
C1033       C  0.44396136  0.73037486  0.80399744    -0.03900
C1034       C  0.41601595  0.73423009  0.81833238    -0.08300
C1035       C  0.38965455  0.75565311  0.81245632     0.05200
C1036       C  0.39196688  0.77389026  0.79194990    -0.03400
Br1037     Br  0.35597653  0.80154882  0.78175928    -0.03100
H1038       H  0.42089188  0.78294359  0.76134824     0.09100
H1039       H  0.41477109  0.72021259  0.83411011     0.07100
Br1040     Br  0.47896592  0.70070033  0.81326769    -0.03500
C1041       C  0.32116986  0.96859871  0.71784062    -0.10100
C1042       C  0.30393981  0.99904250  0.71781376     0.06100
C1043       C  0.31214936  0.52303836  0.70110263    -0.03900
C1044       C  0.33929001  0.51783393  0.68645730    -0.08300
C1045       C  0.35828313  0.98838273  0.68727924     0.05200
C1046       C  0.34797695  0.96291734  0.70256429    -0.03400
Br1047     Br  0.36998644  0.92066076  0.70418492    -0.03100
H1048       H  0.31441913  0.94958346  0.73020280     0.09100
H1049       H  0.34545571  0.53707647  0.67412889     0.07100
Br1050     Br  0.28602699  0.56256125  0.69634170    -0.03500
C1051       C  0.15563097  0.00351539  0.72976391    -0.10100
C1052       C  0.18847879  0.99745138  0.72177180     0.06100
C1053       C  0.19270382  0.98446869  0.69954539    -0.03900
C1054       C  0.16464039  0.97927809  0.68571150    -0.08300
C1055       C  0.13225170  0.98700038  0.69343885     0.05200
C1056       C  0.12772822  0.99844240  0.71581080    -0.03400
Br1057     Br  0.08378392  0.50688551  0.72807913    -0.03100
H1058       H  0.15162186  0.51267464  0.74693915     0.09100
H1059       H  0.16828318  0.97068180  0.66839191     0.07100
Br1060     Br  0.23571973  0.97640327  0.68582469    -0.03500
C1061       C  0.22182708  0.60608703  0.80845030    -0.10100
C1062       C  0.24807478  0.62938650  0.80754690     0.06100
C1063       C  0.27309171  0.62582942  0.79067667    -0.03900
C1064       C  0.27261320  0.59814908  0.77617064    -0.08300
C1065       C  0.24751545  0.57316881  0.77797171     0.05200
C1066       C  0.22116373  0.57849165  0.79400847    -0.03400
Br1067     Br  0.18338735  0.54897270  0.79789991    -0.03100
H1068       H  0.20194080  0.60875869  0.82105776     0.09100
H1069       H  0.29253754  0.59688044  0.76346798     0.07100
Br1070     Br  0.30753728  0.65883631  0.78584055    -0.03500
C1071       C  0.27792977  0.93133937  0.78296246    -0.10100
C1072       C  0.24771006  0.94818053  0.77966822     0.06100
C1073       C  0.21834508  0.93649910  0.79052213    -0.03900
C1074       C  0.21962548  0.90854530  0.80471763    -0.08300
C1075       C  0.25011569  0.89210896  0.80888012     0.05200
C1076       C  0.27955913  0.90374277  0.79755449    -0.03400
Br1077     Br  0.32321345  0.88460720  0.80149776    -0.03100
H1078       H  0.30070447  0.94061544  0.77488840     0.09100
H1079       H  0.19671091  0.90039538  0.81313727     0.07100
Br1080     Br  0.17609731  0.95859059  0.78710082    -0.03500
C1081       C  0.08452569  0.78496484  0.02517157    -0.10100
C1082       C  0.05931256  0.76057194  0.02718006     0.06100
C1083       C  0.06398864  0.73341751  0.04204236    -0.03900
C1084       C  0.09276720  0.73196178  0.05538555    -0.08300
C1085       C  0.11723585  0.75716587  0.05408999     0.05200
C1086       C  0.11365210  0.78309804  0.03814760    -0.03400
Br1087     Br  0.14834718  0.81552724  0.03257276    -0.03100
H1088       H  0.08144193  0.80574340  0.01363684     0.09100
H1089       H  0.09541004  0.71162782  0.06739344     0.07100
Br1090     Br  0.03203052  0.69762357  0.04475143    -0.03500
C1091       C  0.42157078  0.79753366  0.03340862    -0.10100
C1092       C  0.43539152  0.76725257  0.02631749     0.06100
C1093       C  0.42002644  0.73725480  0.03304998    -0.03900
C1094       C  0.39189866  0.73777358  0.04739086    -0.08300
C1095       C  0.37842703  0.76799151  0.05531753     0.05200
C1096       C  0.39297240  0.79828196  0.04744140    -0.03400
Br1097     Br  0.37577627  0.84162413  0.05479575    -0.03100
H1098       H  0.43329666  0.82073349  0.02810763     0.09100
H1099       H  0.38113845  0.71421731  0.05284077     0.07100
Br1100     Br  0.43757517  0.69493313  0.02390000    -0.03500
C1101       C  0.10215187  0.79006635  0.95225285    -0.10100
C1102       C  0.11836115  0.75951873  0.94843616     0.06100
C1103       C  0.10651704  0.73083862  0.96019313    -0.03900
C1104       C  0.07783412  0.73299765  0.97411765    -0.08300
C1105       C  0.06084058  0.76325757  0.97667368     0.05200
C1106       C  0.07363738  0.79204528  0.96607507    -0.03400
Br1107     Br  0.05293180  0.83471781  0.97004337    -0.03100
H1108       H  0.11096679  0.81256699  0.94388357     0.09100
H1109       H  0.06837262  0.71088567  0.98268237     0.07100
Br1110     Br  0.12810371  0.68821090  0.95850283    -0.03500
C1111       C  0.41342983  0.78928910  0.97580044    -0.10100
C1112       C  0.43680392  0.76328425  0.97555850     0.06100
C1113       C  0.43100744  0.73539018  0.96158494    -0.03900
C1114       C  0.40276394  0.73434488  0.94769709    -0.08300
C1115       C  0.37993992  0.76084202  0.94726001     0.05200
C1116       C  0.38496075  0.78816624  0.96199674    -0.03400
Br1117     Br  0.35353797  0.82411565  0.96471922    -0.03100
H1118       H  0.41766169  0.81088293  0.98641070     0.09100
H1119       H  0.39929973  0.71310672  0.93660675     0.07100
Br1120     Br  0.46099196  0.69806321  0.96058787    -0.03500
C1121       C  0.30737593  0.98816998  0.29959483    -0.10100
C1122       C  0.31405065  0.00081448  0.27764978     0.06100
C1123       C  0.34791525  0.50780724  0.27151376    -0.03900
C1124       C  0.37355277  0.50377082  0.28746457    -0.08300
C1125       C  0.36653863  0.99178623  0.30933779     0.05200
C1126       C  0.33325605  0.98346840  0.31530478    -0.03400
Br1127     Br  0.32176197  0.96754048  0.34520070    -0.03100
H1128       H  0.28178315  0.98283736  0.30487536     0.09100
H1129       H  0.39922933  0.50977289  0.28267992     0.07100
Br1130     Br  0.36181484  0.52086434  0.24144505    -0.03500
C1131       C  0.17735810  0.97295346  0.28225430    -0.10100
C1132       C  0.19868837  0.00049711  0.28504801     0.06100
C1133       C  0.19185157  0.52364974  0.30247878    -0.03900
C1134       C  0.16355604  0.51938794  0.31635275    -0.08300
C1135       C  0.14139899  0.99247479  0.31311975     0.05200
C1136       C  0.14859023  0.96897875  0.29593475    -0.03400
Br1137     Br  0.11822608  0.93344260  0.28849816    -0.03100
H1138       H  0.18193123  0.95564906  0.26845475     0.09100
H1139       H  0.15868893  0.53749921  0.32960355     0.07100
Br1140     Br  0.21996763  0.56189850  0.30768295    -0.03500
C1141       C  0.22514670  0.59471965  0.22283469    -0.10100
C1142       C  0.24926077  0.56923520  0.22015479     0.06100
C1143       C  0.27330891  0.57292351  0.20230155    -0.03900
C1144       C  0.27289069  0.60095443  0.18821076    -0.08300
C1145       C  0.24834324  0.62546385  0.19076157     0.05200
C1146       C  0.22426405  0.62220663  0.20823102    -0.03400
Br1147     Br  0.19025559  0.65513742  0.21363095    -0.03100
H1148       H  0.20647458  0.59417595  0.23616447     0.09100
H1149       H  0.29131647  0.60301921  0.17458521     0.07100
Br1150     Br  0.30697538  0.54035350  0.19514999    -0.03500
C1151       C  0.21413747  0.93497086  0.21610949    -0.10100
C1152       C  0.24515408  0.94436387  0.22524876     0.06100
C1153       C  0.27328669  0.92414023  0.22142742    -0.03900
C1154       C  0.27065197  0.89636698  0.20720135    -0.08300
C1155       C  0.24012373  0.88799803  0.19663396     0.05200
C1156       C  0.21120464  0.90693274  0.20210131    -0.03400
Br1157     Br  0.16730586  0.89798570  0.19020513    -0.03100
H1158       H  0.19231444  0.95041341  0.21914048     0.09100
H1159       H  0.29305612  0.88200740  0.20371640     0.07100
Br1160     Br  0.31648405  0.93496732  0.23361793    -0.03500
C1161       C  0.74972945  0.03852553  0.23578353     0.85500
C1162       C  0.72220522  0.03564303  0.25427437    -0.54700
C1163       C  0.72434216  0.50777398  0.26743544     0.08400
C1164       C  0.75361636  0.48470481  0.26094525     0.19400
C1165       C  0.78262607  0.03552348  0.24918789    -0.55400
C1166       C  0.78517146  0.50727404  0.26212941     0.08500
C1167       C  0.74616840  0.00583267  0.22251398    -0.55000
C1168       C  0.74857655  0.47779160  0.23546657     0.09100
H1169       H  0.70167740  0.05278070  0.25685856     0.13600
H1170       H  0.75488676  0.46170861  0.27144012    -0.00600
H1171       H  0.80147270  0.05513513  0.24915132     0.13900
H1172       H  0.74186979  0.50485161  0.20423734     0.13700
C1173       C  0.96783728  0.26598600  0.98914844     0.01300
C1174       C  0.96715398  0.26727244  0.01316159     0.01300
C1175       C  0.49732462  0.26639067  0.02520142    -0.19200
C1176       C  0.52826447  0.26383050  0.01375134     0.01300
C1177       C  0.52904552  0.26445182  0.98975941     0.01300
C1178       C  0.49889221  0.26585773  0.97773228    -0.19200
H1179       H  0.49958126  0.26581923  0.95926439     0.03300
H1180       H  0.49669415  0.26676914  0.04366635     0.03300
C1181       C  0.74879699  0.04085907  0.76384372     0.85500
C1182       C  0.77917455  0.03561548  0.74777758    -0.54700
C1183       C  0.77842576  0.50648340  0.73569896     0.08400
C1184       C  0.74782469  0.48425881  0.74142032     0.19400
C1185       C  0.71819422  0.03634838  0.74825562    -0.55400
C1186       C  0.71731261  0.50668435  0.73663811     0.08500
C1187       C  0.74905119  0.00975359  0.77904450    -0.55000
C1188       C  0.74822644  0.48034838  0.76748217     0.09100
H1189       H  0.79999606  0.05296366  0.74551093     0.13600
H1190       H  0.74735891  0.46004999  0.73236359    -0.00600
H1191       H  0.69872013  0.05504873  0.74667218     0.13900
H1192       H  0.74993139  0.51070529  0.79750380     0.13700
C1193       C  0.50074481  0.20640039  0.73751071     0.85500
C1194       C  0.53202293  0.21110861  0.75259520    -0.54700
C1195       C  0.53362596  0.24080050  0.76380271     0.08400
C1196       C  0.50228182  0.26264703  0.76013826     0.19400
C1197       C  0.97161828  0.21048168  0.75449105    -0.55400
C1198       C  0.97215291  0.23985445  0.76619831     0.08500
C1199       C  0.49992378  0.23770278  0.72248688    -0.55000
C1200       C  0.50044217  0.26688114  0.73420560     0.09100
H1201       H  0.55039936  0.19218590  0.75597677     0.13600
H1202       H  0.50259283  0.28661892  0.76952788    -0.00600
H1203       H  0.95221312  0.19172804  0.75714305     0.13900
H1204       H  0.49879206  0.23686824  0.70401570     0.13700
C1205       C  0.75071047  0.47855577  0.98870828     0.01300
C1206       C  0.75062572  0.47824021  0.01276995     0.01300
C1207       C  0.75051138  0.00857461  0.02463915    -0.19200
C1208       C  0.75017813  0.03923487  0.01309495     0.01300
C1209       C  0.74843739  0.03952421  0.98911709     0.01300
C1210       C  0.74900397  0.00928075  0.97717939    -0.19200
H1211       H  0.74833084  0.00964876  0.95872241     0.03300
H1212       H  0.75068051  0.00827608  0.04310492     0.03300
N1213       N  0.73381629  0.33111291  0.90375593    -0.07100
N1214       N  0.72263383  0.35121445  0.91987343    -0.59200
N1215       N  0.76647878  0.33073776  0.85100291    -0.06800
N1216       N  0.77809889  0.35154392  0.83536267    -0.61300
N1217       N  0.73341791  0.33105310  0.85140751    -0.06400
N1218       N  0.72205515  0.35205983  0.83596786    -0.59200
N1219       N  0.76683838  0.33130556  0.90321667    -0.06000
N1220       N  0.77873291  0.35155271  0.91893990    -0.61700
C1221       C  0.75091610  0.36355968  0.92942402     0.95100
C1222       C  0.75020496  0.36453390  0.82589030     0.94900
N1223       N  0.82337819  0.24201036  0.85175832    -0.07300
N1224       N  0.84602223  0.22986658  0.83755733    -0.61800
N1225       N  0.82184511  0.27572492  0.90337834    -0.05400
N1226       N  0.84132024  0.28768986  0.91950527    -0.61000
N1227       N  0.82173009  0.24296927  0.90380951    -0.07300
N1228       N  0.84133300  0.23201757  0.92020874    -0.60100
N1229       N  0.82351547  0.27478990  0.85102903    -0.05000
N1230       N  0.84625807  0.28551130  0.83610076    -0.61100
Mn1231     Mn  0.79526120  0.30376938  0.87699101     1.18400
C1232       C  0.85980073  0.25714093  0.82763835     0.97200
C1233       C  0.85304926  0.26021592  0.93006645     0.97800
N1234       N  0.67594120  0.27552243  0.85240982    -0.07300
N1235       N  0.65401233  0.28691137  0.83752632    -0.63600
N1236       N  0.67730160  0.24241597  0.90445712    -0.06100
N1237       N  0.65723524  0.23095867  0.92072910    -0.64300
N1238       N  0.67777022  0.27516257  0.90454042    -0.06800
N1239       N  0.65812207  0.28656218  0.92089143    -0.63900
N1240       N  0.67635763  0.24273397  0.85218141    -0.05700
N1241       N  0.65504139  0.23117278  0.83696687    -0.64600
Mn1242     Mn  0.70460650  0.30387110  0.87799722     1.10700
C1243       C  0.64139613  0.25895686  0.82794643     0.98400
C1244       C  0.64562436  0.25876962  0.93104742     0.98500
N1245       N  0.76562602  0.18703079  0.90396335    -0.06800
N1246       N  0.77697792  0.16710449  0.92004267    -0.62200
N1247       N  0.73284308  0.18733715  0.85161528    -0.06200
N1248       N  0.72102677  0.16788152  0.83543889    -0.58900
N1249       N  0.76590725  0.18719522  0.85138787    -0.07500
N1250       N  0.77718163  0.16770621  0.83492588    -0.61800
N1251       N  0.73262320  0.18693908  0.90402871    -0.06500
N1252       N  0.72091187  0.16698342  0.92018082    -0.59000
Mn1253     Mn  0.79473816  0.21410440  0.87772785     1.20200
Mn1254     Mn  0.70418411  0.21416939  0.87800688     1.10100
Cl1255     Cl  0.74969841  0.25899877  0.87755433    -0.86900
C1256       C  0.74886858  0.15496338  0.93024874     0.95400
C1257       C  0.74888817  0.15607259  0.82494407     0.95200
N1258       N  0.67206517  0.23934813  0.14961707    -0.07100
N1259       N  0.64984519  0.22630542  0.16391825    -0.59200
N1260       N  0.67411281  0.27415710  0.09802364    -0.06800
N1261       N  0.65475435  0.28543978  0.08165032    -0.61300
N1262       N  0.67504151  0.24143082  0.09759839    -0.06400
N1263       N  0.65624743  0.22974618  0.08102824    -0.59200
N1264       N  0.67069307  0.27206821  0.15021777    -0.06000
N1265       N  0.64744501  0.28177678  0.16495578    -0.61700
C1266       C  0.63474123  0.25298258  0.17359624     0.95100
C1267       C  0.64414164  0.25749820  0.07103013     0.94900
N1268       N  0.76070079  0.33316949  0.10004020    -0.07300
N1269       N  0.77215205  0.35364566  0.08410106    -0.59800
N1270       N  0.72577775  0.32971509  0.15214277    -0.05400
N1271       N  0.71322072  0.34896843  0.16828123    -0.61000
N1272       N  0.75880117  0.33069220  0.15249278    -0.07300
N1273       N  0.76924796  0.35053926  0.16888825    -0.60100
N1274       N  0.72771361  0.33196628  0.09968793    -0.05000
N1275       N  0.71615212  0.35165229  0.08352763    -0.61100
Mn1276     Mn  0.69887771  0.30268151  0.12508407     1.18400
C1277       C  0.74408342  0.36505371  0.07382241     0.97200
C1278       C  0.74058905  0.36173887  0.17874985     0.97800
N1279       N  0.73190380  0.18768116  0.09705738    -0.07300
N1280       N  0.72105285  0.16685179  0.08136545    -0.63600
N1281       N  0.76375218  0.18689480  0.14904302    -0.06100
N1282       N  0.77567750  0.16623823  0.16444788    -0.64300
N1283       N  0.73071946  0.18616530  0.14921351    -0.06800
N1284       N  0.71947112  0.16506271  0.16477036    -0.63900
N1285       N  0.76491161  0.18883012  0.09693872    -0.05700
N1286       N  0.77710935  0.16862864  0.08119913    -0.64600
Mn1287     Mn  0.70186867  0.21306628  0.12344872     1.10700
C1288       C  0.74941263  0.15538100  0.07134272     0.98400
C1289       C  0.74777579  0.15313892  0.17431357     0.98500
N1290       N  0.81671668  0.27683561  0.15188137    -0.06800
N1291       N  0.83615246  0.28763955  0.16850935    -0.62200
N1292       N  0.81892274  0.24721824  0.09837317    -0.06200
N1293       N  0.83948687  0.23757792  0.08196021    -0.58900
N1294       N  0.81815291  0.27990723  0.09942591    -0.07500
N1295       N  0.83816249  0.29306235  0.08375702    -0.61800
N1296       N  0.81761395  0.24412000  0.15076630    -0.06500
N1297       N  0.83749284  0.23202504  0.16659168    -0.59000
Mn1298     Mn  0.78930089  0.30589345  0.12605124     1.20200
Mn1299     Mn  0.79206067  0.21620918  0.12367877     1.10100
Cl1300     Cl  0.74551384  0.25946778  0.12462622    -0.86900
C1301       C  0.84839636  0.25930991  0.17777843     0.95400
C1302       C  0.85123466  0.26644466  0.07281800     0.95200
N1303       N  0.98239340  0.05849883  0.65043355    -0.07100
N1304       N  0.97053670  0.07934191  0.66589018    -0.59200
N1305       N  0.51793036  0.05918754  0.59872701    -0.06800
N1306       N  0.53023157  0.07948433  0.58297661    -0.61300
N1307       N  0.98485388  0.05897008  0.59817573    -0.06400
N1308       N  0.97402150  0.07902762  0.58200678    -0.59200
N1309       N  0.51542855  0.05834500  0.65082329    -0.06000
N1310       N  0.52660848  0.07893944  0.66648523    -0.61700
C1311       C  0.99847122  0.09161429  0.67599522     0.95100
C1312       C  0.00250908  0.09137549  0.57243756     0.94900
N1313       N  0.57334738  0.47080832  0.59904111    -0.07300
N1314       N  0.59339394  0.45981727  0.58273243    -0.59800
N1315       N  0.57137787  0.00281304  0.65169082    -0.05400
N1316       N  0.59149158  0.01425670  0.66767502    -0.61000
N1317       N  0.57189886  0.47000240  0.65130991    -0.07300
N1318       N  0.59278189  0.45852177  0.66683595    -0.60100
N1319       N  0.57332391  0.00364130  0.59929988    -0.05000
N1320       N  0.59325909  0.01559670  0.58318670    -0.61100
Mn1321     Mn  0.54517022  0.03157999  0.62519780     1.18400
C1322       C  0.60535121  0.48797013  0.57279867     0.97200
C1323       C  0.60432625  0.48637138  0.67714208     0.97800
N1324       N  0.92913468  0.00346415  0.59688638    -0.07300
N1325       N  0.90980887  0.01533755  0.58067065    -0.63600
N1326       N  0.92505089  0.46963403  0.64870190    -0.06100
N1327       N  0.90168397  0.45844225  0.66304268    -0.64300
N1328       N  0.92578021  0.00244277  0.64889929    -0.06800
N1329       N  0.90316684  0.01408783  0.66325501    -0.63900
N1330       N  0.92903919  0.47073447  0.59654984    -0.05700
N1331       N  0.90948268  0.45971771  0.58016198    -0.64600
Mn1332     Mn  0.95495404  0.03141500  0.62368282     1.10700
C1333       C  0.89799471  0.48777427  0.57015024     0.98400
C1334       C  0.88841057  0.48651815  0.67215420     0.98500
N1335       N  0.51479367  0.41458145  0.65022474    -0.06800
N1336       N  0.52520728  0.39422180  0.66633734    -0.62200
N1337       N  0.98493511  0.41486683  0.59713931    -0.06200
N1338       N  0.97453590  0.39435929  0.58105478    -0.58900
N1339       N  0.51779524  0.41496178  0.59799072    -0.07500
N1340       N  0.53035015  0.39461069  0.58252626    -0.61800
N1341       N  0.98189570  0.41453702  0.64943470    -0.06500
N1342       N  0.96932547  0.39419112  0.66499634    -0.59000
Mn1343     Mn  0.54513803  0.44190202  0.62470649     1.20200
Mn1344     Mn  0.95458135  0.44170856  0.62295028     1.10100
Cl1345     Cl  0.99998051  0.48665712  0.62421397    -0.86900
C1346       C  0.99661095  0.38165080  0.67545963     0.95400
C1347       C  0.00325546  0.38195282  0.57190385     0.95200
N1348       N  0.57417782  0.47182420  0.35045812    -0.07100
N1349       N  0.59728344  0.46171645  0.33577178    -0.59200
N1350       N  0.57322054  0.00091420  0.40339965    -0.06800
N1351       N  0.59415546  0.01113431  0.41928629    -0.61300
N1352       N  0.57306905  0.46816112  0.40240158    -0.06400
N1353       N  0.59386369  0.45564820  0.41755434    -0.59200
N1354       N  0.57405871  0.00461956  0.35155220    -0.06000
N1355       N  0.59703575  0.01733554  0.33774372    -0.61700
C1356       C  0.61109404  0.49038106  0.32778486     0.95100
C1357       C  0.60682676  0.48266655  0.42812283     0.94900
N1358       N  0.98445039  0.05685057  0.40496416    -0.07300
N1359       N  0.97279816  0.07660532  0.42109480    -0.59800
N1360       N  0.51741928  0.06036170  0.35259434    -0.05400
N1361       N  0.52857477  0.08221432  0.33739007    -0.61000
N1362       N  0.98439841  0.05952906  0.35260739    -0.07300
N1363       N  0.97242724  0.08039734  0.33733466    -0.60100
N1364       N  0.51744662  0.05696159  0.40497234    -0.05000
N1365       N  0.52885422  0.07685743  0.42108031    -0.61100
Mn1366     Mn  0.54611337  0.03136010  0.37812502     1.18400
C1367       C  0.00073545  0.08871859  0.43126133     0.97200
C1368       C  0.00021730  0.09404428  0.32779903     0.97800
N1369       N  0.51641078  0.41267602  0.40100105    -0.07300
N1370       N  0.52740458  0.39241951  0.41707325    -0.63600
N1371       N  0.98343930  0.41679682  0.34857338    -0.06100
N1372       N  0.97144270  0.39875838  0.33172329    -0.64300
N1373       N  0.51650523  0.41657506  0.34827329    -0.06800
N1374       N  0.52753625  0.39833523  0.33109672    -0.63900
N1375       N  0.98341450  0.41291798  0.40092891    -0.05700
N1376       N  0.97134926  0.39283587  0.41686432    -0.64600
Mn1377     Mn  0.54566213  0.44147729  0.37544574     1.10700
C1378       C  0.99903142  0.38042129  0.42699488     0.98400
C1379       C  0.99910244  0.38758748  0.32072042     0.98500
N1380       N  0.92796036  0.00445667  0.35143980    -0.06800
N1381       N  0.90730784  0.01713097  0.33625045    -0.62200
N1382       N  0.92852396  0.46844402  0.40281454    -0.06200
N1383       N  0.90905341  0.45605100  0.41903450    -0.58900
N1384       N  0.92887181  0.00111209  0.40369479    -0.07500
N1385       N  0.90963375  0.01164588  0.42052051    -0.61800
N1386       N  0.92718376  0.47170742  0.35068521    -0.06500
N1387       N  0.90574646  0.46139233  0.33509501    -0.59000
Mn1388     Mn  0.95583781  0.03107897  0.37817286     1.20200
Mn1389     Mn  0.95502720  0.44173374  0.37570166     1.10100
Cl1390     Cl  0.00071827  0.48643655  0.37678391    -0.86900
C1391       C  0.89383750  0.49000766  0.32608785     0.95400
C1392       C  0.89775646  0.48332098  0.43013551     0.95200
C1393       C  0.99903238  0.26734730  0.51202505     0.01300
C1394       C  0.99611733  0.26674455  0.48803014     0.01300
C1395       C  0.99587826  0.23582919  0.47678897    -0.19200
C1396       C  0.99815155  0.20562429  0.48882730     0.01300
C1397       C  0.00123130  0.20626670  0.51278116     0.01300
C1398       C  0.00124212  0.23714497  0.52404000    -0.19200
H1399       H  0.00291732  0.23771037  0.54245647     0.03300
H1400       H  0.49428193  0.23528815  0.45836884     0.03300
C1401       C  0.78181227  0.48869366  0.51248651     0.01300
C1402       C  0.78176767  0.48470694  0.48868476     0.01300
C1403       C  0.75118038  0.48370522  0.47707926    -0.19200
C1404       C  0.72055750  0.48608272  0.48881500     0.01300
C1405       C  0.72051023  0.48973388  0.51274271     0.01300
C1406       C  0.75123194  0.49072562  0.52430552    -0.19200
H1407       H  0.75136430  0.49270763  0.54271929     0.03300
H1408       H  0.75121199  0.48129623  0.45868505     0.03300
C1409       C  0.99120971  0.21057424  0.26795166     0.85500
C1410       C  0.95910839  0.21428972  0.25362974    -0.54700
C1411       C  0.95991149  0.24046214  0.23861219     0.08400
C1412       C  0.99243041  0.26147816  0.23982823     0.19400
C1413       C  0.52034284  0.21023060  0.25076803    -0.55400
C1414       C  0.52118168  0.23643125  0.23590098     0.08500
C1415       C  0.99410942  0.24481396  0.27963967    -0.55000
C1416       C  0.99511141  0.27118296  0.26505011     0.09100
H1417       H  0.93752387  0.19780288  0.25526051     0.13600
H1418       H  0.99287242  0.28317853  0.22806321    -0.00600
H1419       H  0.53964187  0.19122863  0.25106062     0.13900
H1420       H  0.99388391  0.24899389  0.29783675     0.13700
C1421       C  0.52826741  0.34448871  0.29775110    -0.10100
C1422       C  0.99856754  0.36215751  0.30233544     0.06100
C1423       C  0.96881965  0.35269274  0.29080409    -0.03900
C1424       C  0.96881910  0.32442522  0.27679934    -0.08300
C1425       C  0.99793736  0.30543651  0.27393774     0.05200
C1426       C  0.52801268  0.31624653  0.28391360    -0.03400
Br1427     Br  0.56882999  0.29146856  0.28062325    -0.03100
H1428       H  0.55147956  0.35132452  0.30606280     0.09100
H1429       H  0.94552578  0.31610380  0.26920392     0.07100
Br1430     Br  0.92707076  0.37621897  0.29368246    -0.03500
C1431       C  0.98774416  0.11948561  0.29014117    -0.10100
C1432       C  0.99902597  0.12311211  0.31249850     0.06100
C1433       C  0.50744125  0.15497685  0.32043609    -0.03900
C1434       C  0.50434479  0.18265218  0.30617957    -0.08300
C1435       C  0.99235072  0.17976885  0.28366740     0.05200
C1436       C  0.98512003  0.14712031  0.27556875    -0.03400
Br1437     Br  0.97299669  0.13756627  0.24464348    -0.03100
H1438       H  0.98147511  0.09489442  0.28385213     0.09100
H1439       H  0.51284215  0.20602195  0.31302173     0.07100
Br1440     Br  0.52251270  0.16211080  0.35103645    -0.03500
C1441       C  0.97055760  0.13494023  0.45036810    -0.10100
C1442       C  0.00013856  0.11621707  0.44819271     0.06100
C1443       C  0.52842561  0.12567983  0.46117015    -0.03900
C1444       C  0.52717948  0.15446955  0.47467167    -0.08300
C1445       C  0.99807496  0.17394758  0.47577860     0.05200
C1446       C  0.96934947  0.16340731  0.46395215    -0.03400
Br1447     Br  0.92745450  0.18648328  0.46627477    -0.03100
H1448       H  0.94827913  0.12795299  0.44101502     0.09100
H1449       H  0.54917149  0.16191953  0.48418481     0.07100
Br1450     Br  0.56903310  0.10008632  0.46200675    -0.03500
C1451       C  0.96981108  0.33204571  0.44472941    -0.10100
C1452       C  0.99781509  0.35346595  0.44437412     0.06100
C1453       C  0.52392119  0.34760261  0.45996418    -0.03900
C1454       C  0.52245892  0.31985804  0.47450425    -0.08300
C1455       C  0.99519925  0.29773802  0.47407895     0.05200
C1456       C  0.96835807  0.30443466  0.45924830    -0.03400
Br1457     Br  0.92884572  0.27698067  0.45805950    -0.03100
H1458       H  0.94917703  0.33619743  0.43316482     0.09100
H1459       H  0.54323436  0.31513657  0.48584214     0.07100
Br1460     Br  0.56165342  0.37706201  0.46297043    -0.03500
C1461       C  0.64433050  0.01217832  0.45511977    -0.10100
C1462       C  0.63417684  0.48195097  0.44529506     0.06100
C1463       C  0.65193211  0.45261043  0.45112370    -0.03900
C1464       C  0.67912284  0.45443500  0.46604139    -0.08300
C1465       C  0.68933638  0.48485733  0.47536447     0.05200
C1466       C  0.67177607  0.01379608  0.46979487    -0.03400
Br1467     Br  0.68614523  0.05669438  0.48029205    -0.03100
H1468       H  0.63155497  0.03509190  0.45088378     0.09100
H1469       H  0.69304285  0.43204334  0.46996418     0.07100
Br1470     Br  0.64259671  0.40938498  0.43868672    -0.03500
C1471       C  0.84948888  0.45457857  0.44840835    -0.10100
C1472       C  0.87107584  0.48235239  0.44763845     0.06100
C1473       C  0.86489404  0.50947725  0.46230337    -0.03900
C1474       C  0.83581511  0.50968469  0.47570866    -0.08300
C1475       C  0.81333850  0.48270128  0.47545675     0.05200
C1476       C  0.82092918  0.45448251  0.46229806    -0.03400
Br1477     Br  0.79331311  0.41513707  0.46293149    -0.03100
H1478       H  0.85419714  0.43319242  0.43766444     0.09100
H1479       H  0.83051511  0.53120266  0.48617907     0.07100
Br1480     Br  0.89546044  0.04621989  0.46559645    -0.03500
C1481       C  0.66700379  0.46357742  0.52599548    -0.10100
C1482       C  0.68903505  0.49095674  0.52627682     0.06100
C1483       C  0.68196149  0.51798766  0.54075295    -0.03900
C1484       C  0.65379902  0.51689420  0.55498769    -0.08300
C1485       C  0.63243316  0.48897736  0.55545373     0.05200
C1486       C  0.63878534  0.46240422  0.54032864    -0.03400
Br1487     Br  0.60979141  0.42426879  0.53789160    -0.03100
H1488       H  0.67226599  0.44258132  0.51501234     0.09100
H1489       H  0.64931685  0.53763886  0.56635296     0.07100
Br1490     Br  0.70997779  0.55696237  0.54211816    -0.03500
C1491       C  0.83278334  0.46052797  0.52706389    -0.10100
C1492       C  0.81341247  0.48945683  0.52549934     0.06100
C1493       C  0.82448663  0.51875525  0.53618395    -0.03900
C1494       C  0.85290361  0.51800244  0.54993106    -0.08300
C1495       C  0.87119902  0.48845113  0.55284064     0.05200
C1496       C  0.86187854  0.45994432  0.54023387    -0.03400
Br1497     Br  0.88831253  0.92011526  0.53916649    -0.03100
H1498       H  0.82515899  0.43829098  0.51800979     0.09100
H1499       H  0.86025036  0.54055146  0.55871096     0.07100
Br1500     Br  0.80250729  0.56061950  0.53165007    -0.03500
C1501       C  0.53010318  0.14149486  0.55564607    -0.10100
C1502       C  0.00330729  0.11848244  0.55527081     0.06100
C1503       C  0.97726027  0.12313210  0.53940311    -0.03900
C1504       C  0.97721306  0.15153234  0.52550177    -0.08300
C1505       C  0.00325639  0.17520595  0.52658183     0.05200
C1506       C  0.53032045  0.16950389  0.54144219    -0.03400
Br1507     Br  0.56849172  0.19884337  0.54279263    -0.03100
H1508       H  0.55057526  0.13818887  0.56746516     0.09100
H1509       H  0.95647316  0.15535082  0.51398844     0.07100
Br1510     Br  0.94199509  0.09097771  0.53506474    -0.03500
C1511       C  0.97394132  0.34607068  0.54369369    -0.10100
C1512       C  0.00405658  0.35470278  0.55466395     0.06100
C1513       C  0.53287573  0.33516627  0.55022331    -0.03900
C1514       C  0.53078956  0.30769781  0.53561881    -0.08300
C1515       C  0.00062106  0.29885322  0.52521304     0.05200
C1516       C  0.97197847  0.31836678  0.52931029    -0.03400
Br1517     Br  0.92890287  0.30656125  0.51739915    -0.03100
H1518       H  0.95133700  0.36025513  0.54690827     0.09100
H1519       H  0.55287329  0.29256133  0.53273911     0.07100
Br1520     Br  0.57578569  0.34262277  0.56411608    -0.03500
C1521       C  0.56434387  0.27238013  0.21658481    -0.10100
C1522       C  0.54887295  0.24104362  0.21887909     0.06100
C1523       C  0.56092387  0.21447576  0.20542949    -0.03900
C1524       C  0.58889564  0.21912789  0.19120482    -0.08300
C1525       C  0.60518520  0.25018215  0.18933570     0.05200
C1526       C  0.59212203  0.27722383  0.20202365    -0.03400
Br1527     Br  0.61119460  0.32117647  0.20113585    -0.03100
H1528       H  0.55529372  0.29313912  0.22660765     0.09100
H1529       H  0.59753282  0.19821723  0.18116536     0.07100
Br1530     Br  0.53880951  0.17189383  0.20404726    -0.03500
C1531       C  0.90893051  0.25464958  0.18494681    -0.10100
C1532       C  0.87648796  0.25820104  0.19386386     0.06100
C1533       C  0.87146201  0.25694836  0.21757435    -0.03900
C1534       C  0.89896879  0.25190311  0.23199278    -0.08300
C1535       C  0.93160629  0.24788736  0.22302605     0.05200
C1536       C  0.93632870  0.24940045  0.19920513    -0.03400
Br1537     Br  0.97863014  0.24096474  0.18470054    -0.03100
H1538       H  0.91279959  0.25476446  0.16665474     0.09100
H1539       H  0.89482001  0.25061269  0.25022835     0.07100
Br1540     Br  0.82737704  0.26045752  0.23071728    -0.03500
C1541       C  0.77894809  0.10775310  0.05300764    -0.10100
C1542       C  0.75014868  0.12781206  0.05447869     0.06100
C1543       C  0.72218625  0.11974049  0.04075720    -0.03900
C1544       C  0.72284230  0.09118496  0.02709698    -0.08300
C1545       C  0.75106800  0.07047740  0.02653230     0.05200
C1546       C  0.77956451  0.07936963  0.03921506    -0.03400
Br1547     Br  0.82003684  0.05363758  0.03794970    -0.03100
H1548       H  0.80086447  0.11360972  0.06307715     0.09100
H1549       H  0.70101430  0.08485112  0.01706656     0.07100
Br1550     Br  0.68273105  0.14696125  0.03913198    -0.03500
C1551       C  0.71780838  0.43639279  0.03467789    -0.10100
C1552       C  0.74899065  0.44693687  0.02610854     0.06100
C1553       C  0.77797747  0.42910913  0.03187196    -0.03900
C1554       C  0.77552804  0.40174650  0.04665393    -0.08300
C1555       C  0.74438946  0.39165350  0.05604478     0.05200
C1556       C  0.71509092  0.40893320  0.04930254    -0.03400
Br1557     Br  0.67052825  0.39822634  0.05982225    -0.03100
H1558       H  0.69540857  0.45012362  0.03026393     0.09100
H1559       H  0.79833853  0.38890530  0.05129302     0.07100
Br1560     Br  0.82155936  0.44239236  0.02098960    -0.03500
C1561       C  0.77638689  0.09073034  0.97422498    -0.10100
C1562       C  0.74737649  0.07100458  0.97599105     0.06100
C1563       C  0.71819328  0.08078309  0.96448931    -0.03900
C1564       C  0.71885794  0.10905542  0.95053835    -0.08300
C1565       C  0.74845395  0.12796273  0.94761602     0.05200
C1566       C  0.77719121  0.11909051  0.96030072    -0.03400
Br1567     Br  0.81819053  0.14451609  0.95996670    -0.03100
H1568       H  0.79874384  0.08363419  0.98341730     0.09100
H1569       H  0.69631654  0.11557147  0.94136965     0.07100
Br1570     Br  0.67691110  0.05617709  0.96731553    -0.03500
C1571       C  0.77890667  0.41312803  0.94614790    -0.10100
C1572       C  0.75156299  0.39084468  0.94643991     0.06100
C1573       C  0.72499458  0.39638367  0.96206936    -0.03900
C1574       C  0.72543396  0.42463884  0.97603576    -0.08300
C1575       C  0.75220530  0.44747882  0.97506301     0.05200
C1576       C  0.77935220  0.44124015  0.96015529    -0.03400
Br1577     Br  0.81763151  0.47044341  0.95813489    -0.03100
H1578       H  0.79968987  0.40929005  0.93444620     0.09100
H1579       H  0.70439309  0.42913682  0.98738569     0.07100
Br1580     Br  0.68801874  0.36592703  0.96586035    -0.03500
C1581       C  0.97042966  0.13957373  0.69495222    -0.10100
C1582       C  0.99848406  0.11869493  0.69313075     0.06100
C1583       C  0.52669874  0.12557728  0.70672021    -0.03900
C1584       C  0.52671004  0.15303507  0.72121119    -0.08300
C1585       C  0.99894606  0.17458645  0.72298864     0.05200
C1586       C  0.97049377  0.16736282  0.70935829    -0.03400
Br1587     Br  0.93137776  0.19528438  0.70825819    -0.03100
H1588       H  0.94865454  0.13503992  0.68445087     0.09100
H1589       H  0.54958804  0.15740535  0.73019827     0.07100
Br1590     Br  0.56665571  0.09882171  0.70676498    -0.03500
C1591       C  0.52625918  0.34501580  0.70264262    -0.10100
C1592       C  0.99582818  0.35471135  0.69283174     0.06100
C1593       C  0.96618244  0.33690878  0.69889597    -0.03900
C1594       C  0.96810640  0.30950003  0.71357873    -0.08300
C1595       C  0.99894238  0.29911685  0.72227140     0.05200
C1596       C  0.52803393  0.31729809  0.71697042    -0.03400
Br1597     Br  0.57139376  0.30361510  0.72712349    -0.03100
H1598       H  0.54931347  0.35812674  0.69837451     0.09100
H1599       H  0.94557206  0.29525893  0.71747763     0.07100
Br1600     Br  0.92250769  0.34623653  0.68684151    -0.03500
C1601       C  0.62134179  0.24473104  0.78947348    -0.10100
C1602       C  0.61445036  0.25829906  0.81087819     0.06100
C1603       C  0.58158881  0.26891429  0.81600835    -0.03900
C1604       C  0.55584249  0.26429511  0.80013120    -0.08300
C1605       C  0.56234020  0.24936857  0.77894914     0.05200
C1606       C  0.59597632  0.24080263  0.77336018    -0.03400
Br1607     Br  0.60990366  0.22491070  0.74388628    -0.03100
H1608       H  0.64671595  0.23712305  0.78525779     0.09100
H1609       H  0.53041494  0.27103936  0.80481815     0.07100
Br1610     Br  0.57011393  0.28725096  0.84514244    -0.03500
C1611       C  0.91999354  0.26993139  0.77752984    -0.10100
C1612       C  0.94583290  0.24785284  0.78324009     0.06100
C1613       C  0.94395942  0.23037114  0.80399595    -0.03900
C1614       C  0.91601398  0.23422704  0.81833074    -0.08300
C1615       C  0.88965472  0.25565330  0.81245570     0.05200
C1616       C  0.89196925  0.27389272  0.79195030    -0.03400
Br1617     Br  0.85598138  0.30155494  0.78176035    -0.03100
H1618       H  0.92089623  0.28294779  0.76134974     0.09100
H1619       H  0.91476742  0.22020754  0.83410760     0.07100
Br1620     Br  0.97896062  0.20069177  0.81326485    -0.03500
C1621       C  0.82116884  0.46860196  0.71784159    -0.10100
C1622       C  0.80393883  0.49904574  0.71781441     0.06100
C1623       C  0.81214809  0.02304110  0.70110426    -0.03900
C1624       C  0.83928873  0.01783680  0.68645883    -0.08300
C1625       C  0.85828154  0.48838486  0.68727958     0.05200
C1626       C  0.84797550  0.46292001  0.70256506    -0.03400
Br1627     Br  0.86998442  0.42066326  0.70418591    -0.03100
H1628       H  0.81441833  0.44958712  0.73020410     0.09100
H1629       H  0.84545474  0.03707974  0.67413074     0.07100
Br1630     Br  0.78602638  0.06256462  0.69634394    -0.03500
C1631       C  0.65563046  0.50351928  0.72976337    -0.10100
C1632       C  0.68847849  0.49745374  0.72177218     0.06100
C1633       C  0.69270411  0.48446885  0.69954640    -0.03900
C1634       C  0.66464114  0.47927749  0.68571221    -0.08300
C1635       C  0.63225236  0.48700138  0.69343856     0.05200
C1636       C  0.62772821  0.49844576  0.71580988    -0.03400
Br1637     Br  0.58378231  0.00689182  0.72807842    -0.03100
H1638       H  0.65161999  0.01268071  0.74693878     0.09100
H1639       H  0.66828443  0.47067954  0.66839312     0.07100
Br1640     Br  0.73572023  0.47640143  0.68582658    -0.03500
C1641       C  0.72182605  0.10609101  0.80845039    -0.10100
C1642       C  0.74807536  0.12938876  0.80754796     0.06100
C1643       C  0.77309341  0.12583016  0.79067869    -0.03900
C1644       C  0.77261403  0.09815016  0.77617240    -0.08300
C1645       C  0.74751433  0.07317159  0.77797244     0.05200
C1646       C  0.72116192  0.07849588  0.79400840    -0.03400
Br1647     Br  0.68338340  0.04897939  0.79789859    -0.03100
H1648       H  0.70193913  0.10876380  0.82105711     0.09100
H1649       H  0.79253900  0.09688046  0.76347091     0.07100
Br1650     Br  0.80754240  0.15883411  0.78584426    -0.03500
C1651       C  0.77792947  0.43134344  0.78296314    -0.10100
C1652       C  0.74770989  0.44818530  0.77966989     0.06100
C1653       C  0.71834544  0.43650461  0.79052482    -0.03900
C1654       C  0.71962622  0.40855090  0.80472040    -0.08300
C1655       C  0.75011629  0.39211365  0.80888170     0.05200
C1656       C  0.77955916  0.40374670  0.79755505    -0.03400
Br1657     Br  0.82321302  0.38460934  0.80149638    -0.03100
H1658       H  0.80070371  0.44061881  0.77488824     0.09100
H1659       H  0.69671216  0.40040156  0.81314074     0.07100
Br1660     Br  0.67609767  0.45859636  0.78710425    -0.03500
C1661       C  0.58452578  0.28496413  0.02517158    -0.10100
C1662       C  0.55931295  0.26057091  0.02718004     0.06100
C1663       C  0.56398935  0.23341662  0.04204243    -0.03900
C1664       C  0.59276771  0.23196150  0.05538589    -0.08300
C1665       C  0.61723597  0.25716595  0.05409042     0.05200
C1666       C  0.61365204  0.28309787  0.03814785    -0.03400
Br1667     Br  0.64834681  0.31552736  0.03257296    -0.03100
H1668       H  0.58144189  0.30574251  0.01363664     0.09100
H1669       H  0.59541077  0.21162760  0.06739384     0.07100
Br1670     Br  0.53203220  0.19762180  0.04475109    -0.03500
C1671       C  0.92157817  0.29753508  0.03341153    -0.10100
C1672       C  0.93539344  0.26725340  0.02631655     0.06100
C1673       C  0.92002329  0.23725660  0.03304579    -0.03900
C1674       C  0.89189650  0.23777663  0.04738765    -0.08300
C1675       C  0.87843049  0.26799488  0.05531828     0.05200
C1676       C  0.89298065  0.29828479  0.04744517    -0.03400
Br1677     Br  0.87579289  0.34162816  0.05480523    -0.03100
H1678       H  0.93330774  0.32073423  0.02811289     0.09100
H1679       H  0.88113242  0.21422087  0.05283499     0.07100
Br1680     Br  0.93756392  0.19493421  0.02389020    -0.03500
C1681       C  0.60215017  0.29006799  0.95225161    -0.10100
C1682       C  0.61836132  0.25952108  0.94843600     0.06100
C1683       C  0.60651884  0.23084108  0.96019382    -0.03900
C1684       C  0.57783588  0.23299941  0.97411833    -0.08300
C1685       C  0.56084064  0.26325853  0.97667351     0.05200
C1686       C  0.57363564  0.29204623  0.96607387    -0.03400
Br1687     Br  0.55292774  0.33471786  0.97004101    -0.03100
H1688       H  0.61096374  0.31256848  0.94388155     0.09100
H1689       H  0.56837573  0.21088748  0.98268375     0.07100
Br1690     Br  0.62810796  0.18821449  0.95850481    -0.03500
C1691       C  0.91343266  0.28928760  0.97580052    -0.10100
C1692       C  0.93680694  0.26328294  0.97555721     0.06100
C1693       C  0.93101114  0.23539069  0.96158178    -0.03900
C1694       C  0.90276745  0.23434660  0.94769417    -0.08300
C1695       C  0.87994301  0.26084342  0.94725872     0.05200
C1696       C  0.88496390  0.28816633  0.96199652    -0.03400
Br1697     Br  0.85354198  0.32411630  0.96471979    -0.03100
H1698       H  0.91766428  0.31088020  0.98641204     0.09100
H1699       H  0.89930341  0.21310969  0.93660267     0.07100
Br1700     Br  0.96099656  0.19806451  0.96058159    -0.03500
C1701       C  0.80737579  0.48817018  0.29959465    -0.10100
C1702       C  0.81405034  0.50081639  0.27765003     0.06100
C1703       C  0.84791715  0.00780576  0.27151179    -0.03900
C1704       C  0.87355503  0.00376901  0.28746227    -0.08300
C1705       C  0.86653843  0.49178701  0.30933788     0.05200
C1706       C  0.83325600  0.48346780  0.31530446    -0.03400
Br1707     Br  0.82176216  0.46753658  0.34519960    -0.03100
H1708       H  0.78178314  0.48283659  0.30487494     0.09100
H1709       H  0.89923165  0.00977066  0.28267727     0.07100
Br1710     Br  0.86181605  0.02086202  0.24144278    -0.03500
C1711       C  0.67735645  0.47295469  0.28225156    -0.10100
C1712       C  0.69868687  0.50049804  0.28504620     0.06100
C1713       C  0.69185312  0.02365031  0.30247868    -0.03900
C1714       C  0.66355683  0.01938880  0.31635200    -0.08300
C1715       C  0.64139639  0.49247523  0.31311669     0.05200
C1716       C  0.64858801  0.46897973  0.29593143    -0.03400
Br1717     Br  0.61822381  0.43344408  0.28849387    -0.03100
H1718       H  0.68193004  0.45565073  0.26845182     0.09100
H1719       H  0.65868994  0.03749941  0.32960332     0.07100
Br1720     Br  0.71997123  0.06189699  0.30768471    -0.03500
C1721       C  0.72514976  0.09472236  0.22283499    -0.10100
C1722       C  0.74926322  0.06923748  0.22015482     0.06100
C1723       C  0.77331126  0.07292559  0.20230147    -0.03900
C1724       C  0.77289349  0.10095678  0.18821091    -0.08300
C1725       C  0.74834643  0.12546653  0.19076194     0.05200
C1726       C  0.72426741  0.12220952  0.20823151    -0.03400
Br1727     Br  0.69025958  0.15514083  0.21363173    -0.03100
H1728       H  0.70647745  0.09417873  0.23616505     0.09100
H1729       H  0.79131913  0.10302141  0.17458523     0.07100
Br1730     Br  0.80697667  0.04035481  0.19514930    -0.03500
C1731       C  0.71413787  0.43497273  0.21610978    -0.10100
C1732       C  0.74515481  0.44436594  0.22524843     0.06100
C1733       C  0.77328729  0.42414222  0.22142696    -0.03900
C1734       C  0.77065208  0.39636863  0.20720130    -0.08300
C1735       C  0.74012356  0.38799960  0.19663427     0.05200
C1736       C  0.71120461  0.40693437  0.20210186    -0.03400
Br1737     Br  0.66730554  0.39798718  0.19020626    -0.03100
H1738       H  0.69231497  0.45041530  0.21914098     0.09100
H1739       H  0.79305616  0.38200898  0.20371621     0.07100
Br1740     Br  0.81648511  0.43496988  0.23361656    -0.03500
C1741       C  0.74968772  0.53849935  0.23574206     0.85500
C1742       C  0.72214861  0.53558536  0.25422152    -0.54700
C1743       C  0.72437994  0.00782595  0.26748431     0.08400
C1744       C  0.75362497  0.98472662  0.26098267     0.19400
C1745       C  0.78257683  0.53553065  0.24916485    -0.55400
C1746       C  0.78520078  0.00726833  0.26215205     0.08500
C1747       C  0.74618037  0.50580482  0.22247117    -0.55000
C1748       C  0.74855431  0.97781411  0.23550625     0.09100
H1749       H  0.70161213  0.55271098  0.25680848     0.13600
H1750       H  0.75488364  0.96173120  0.27147928    -0.00600
H1751       H  0.80140542  0.55515885  0.24913383     0.13900
H1752       H  0.74184036  0.00488515  0.20428204     0.13700
C1753       C  0.96783008  0.76597354  0.98915042     0.01300
C1754       C  0.96710020  0.76721742  0.01316339     0.01300
C1755       C  0.49739747  0.76642486  0.02517614    -0.19200
C1756       C  0.52831058  0.76383686  0.01369972     0.01300
C1757       C  0.52904765  0.76443574  0.98971074     0.01300
C1758       C  0.49887611  0.76584502  0.97770550    -0.19200
H1759       H  0.49953426  0.76578371  0.95923727     0.03300
H1760       H  0.49680492  0.76680247  0.04364161     0.03300
C1761       C  0.74884958  0.54077931  0.76383052     0.85500
C1762       C  0.77919955  0.53557838  0.74772841    -0.54700
C1763       C  0.77838715  0.00652883  0.73574557     0.08400
C1764       C  0.74775743  0.98433207  0.74144296     0.19400
C1765       C  0.71821654  0.53623878  0.74827119    -0.55400
C1766       C  0.71728091  0.00678827  0.73663528     0.08500
C1767       C  0.74917945  0.50967129  0.77902174    -0.55000
C1768       C  0.74809965  0.98042200  0.76750825     0.09100
H1769       H  0.79999235  0.55294786  0.74544751     0.13600
H1770       H  0.74728048  0.96012932  0.73237744    -0.00600
H1771       H  0.69872521  0.55492482  0.74670963     0.13900
H1772       H  0.74976175  0.01079719  0.79752722     0.13700
C1773       C  0.50077102  0.70637661  0.73749447     0.85500
C1774       C  0.53201243  0.71105685  0.75261690    -0.54700
C1775       C  0.53361875  0.74075592  0.76381776     0.08400
C1776       C  0.50230816  0.76263564  0.76010730     0.19400
C1777       C  0.97162770  0.71046349  0.75454515    -0.55400
C1778       C  0.97216266  0.73983316  0.76625586     0.08500
C1779       C  0.50002858  0.73766629  0.72246019    -0.55000
C1780       C  0.50054722  0.76685105  0.73416861     0.09100
H1781       H  0.55035769  0.69211048  0.75602348     0.13600
H1782       H  0.50262254  0.78661266  0.76949063    -0.00600
H1783       H  0.95223416  0.69170042  0.75720427     0.13900
H1784       H  0.49894035  0.73681931  0.70398763     0.13700
C1785       C  0.75069432  0.97859973  0.98866618     0.01300
C1786       C  0.75052158  0.97829133  0.01272839     0.01300
C1787       C  0.75066268  0.50852372  0.02468279    -0.19200
C1788       C  0.75029262  0.53918938  0.01314272     0.01300
C1789       C  0.74849619  0.53948837  0.98916579     0.01300
C1790       C  0.74900834  0.50924297  0.97722693    -0.19200
H1791       H  0.74828887  0.50961369  0.95877102     0.03300
H1792       H  0.75087472  0.50822109  0.04314805     0.03300
N1793       N  0.73382802  0.83111311  0.90376866    -0.07100
N1794       N  0.72265856  0.85119947  0.91989919    -0.59200
N1795       N  0.76642291  0.83076100  0.85098797    -0.06800
N1796       N  0.77800903  0.85156206  0.83533079    -0.61300
N1797       N  0.73336202  0.83106125  0.85141250    -0.06400
N1798       N  0.72196478  0.85204838  0.83597135    -0.59200
N1799       N  0.76684847  0.83131889  0.90321154    -0.06000
N1800       N  0.77875665  0.85155770  0.91893507    -0.61700
C1801       C  0.75094855  0.86354834  0.92943821     0.95100
C1802       C  0.75009233  0.86452659  0.82586758     0.94900
N1803       N  0.82335702  0.74202836  0.85175112    -0.07300
N1804       N  0.84602064  0.72988779  0.83756444    -0.61800
N1805       N  0.82185290  0.77575609  0.90335467    -0.05400
N1806       N  0.84134239  0.78772752  0.91947221    -0.61000
N1807       N  0.82173721  0.74299969  0.90379281    -0.07300
N1808       N  0.84135528  0.73205480  0.92018475    -0.60100
N1809       N  0.82347779  0.77480859  0.85101199    -0.05000
N1810       N  0.84622684  0.78553304  0.83609047    -0.61100
Mn1811     Mn  0.79524236  0.80379208  0.87697298     1.18400
C1812       C  0.85978899  0.75716344  0.82764440     0.97200
C1813       C  0.85308016  0.76025569  0.93003211     0.97800
N1814       N  0.67591104  0.77550759  0.85245036    -0.07300
N1815       N  0.65393900  0.78689396  0.83759476    -0.63600
N1816       N  0.67734962  0.74238930  0.90447669    -0.06100
N1817       N  0.65727937  0.73092740  0.92074360    -0.64300
N1818       N  0.67782044  0.77513601  0.90456633    -0.06800
N1819       N  0.65817241  0.78653126  0.92091637    -0.63900
N1820       N  0.67634713  0.74271853  0.85221180    -0.05700
N1821       N  0.65500082  0.73115663  0.83701739    -0.64600
Mn1822     Mn  0.70460223  0.80386211  0.87801929     1.10700
C1823       C  0.64131357  0.75893791  0.82802294     0.98400
C1824       C  0.64567199  0.75873634  0.93106436     0.98500
N1825       N  0.76565968  0.68700987  0.90397162    -0.06800
N1826       N  0.77702018  0.66707144  0.92004315    -0.62200
N1827       N  0.73285435  0.68729359  0.85162226    -0.06200
N1828       N  0.72104424  0.66778754  0.83546976    -0.58900
N1829       N  0.76591916  0.68716426  0.85139312    -0.07500
N1830       N  0.77719903  0.66763879  0.83495232    -0.61800
N1831       N  0.73265692  0.68690231  0.90403700    -0.06500
N1832       N  0.72095480  0.66692515  0.92018108    -0.59000
Mn1833     Mn  0.79474513  0.71410897  0.87772579     1.20200
Mn1834     Mn  0.70420563  0.71414285  0.87801999     1.10100
Cl1835     Cl  0.74969986  0.75899582  0.87755563    -0.86900
C1836       C  0.74891575  0.65490601  0.93024548     0.95400
C1837       C  0.74891008  0.65596492  0.82498509     0.95200
N1838       N  0.67207344  0.73945158  0.14963778    -0.07100
N1839       N  0.64986848  0.72641427  0.16394958    -0.59200
N1840       N  0.67407263  0.77421823  0.09803100    -0.06800
N1841       N  0.65473172  0.78549092  0.08164426    -0.61300
N1842       N  0.67500791  0.74149164  0.09761172    -0.06400
N1843       N  0.65623711  0.72979858  0.08103140    -0.59200
N1844       N  0.67069907  0.77217113  0.15023147    -0.06000
N1845       N  0.64745978  0.78188566  0.16497460    -0.61700
C1846       C  0.63476575  0.75309278  0.17362418     0.95100
C1847       C  0.64413553  0.75754437  0.07102112     0.94900
N1848       N  0.76065163  0.83323309  0.09999658    -0.07300
N1849       N  0.77208594  0.85370792  0.08405141    -0.59800
N1850       N  0.72578349  0.82980642  0.15211985    -0.05400
N1851       N  0.71322976  0.84903035  0.16827477    -0.61000
N1852       N  0.75880736  0.83079701  0.15245812    -0.07300
N1853       N  0.76925727  0.85062903  0.16886414    -0.60100
N1854       N  0.72766385  0.83203620  0.09966241    -0.05000
N1855       N  0.71608449  0.85172529  0.08350934    -0.61100
Mn1856     Mn  0.69885747  0.80276279  0.12507716     1.18400
C1857       C  0.74400650  0.86512048  0.07378808     0.97200
C1858       C  0.74059669  0.86180319  0.17874177     0.97800
N1859       N  0.73185537  0.68770268  0.09709069    -0.07300
N1860       N  0.72100183  0.66682948  0.08142591    -0.63600
N1861       N  0.76372405  0.68698191  0.14907533    -0.06100
N1862       N  0.77564085  0.66630326  0.16447093    -0.64300
N1863       N  0.73069142  0.68625803  0.14924299    -0.06800
N1864       N  0.71943567  0.66514113  0.16478741    -0.63900
N1865       N  0.76486248  0.68884388  0.09697126    -0.05700
N1866       N  0.77705693  0.66859982  0.08125657    -0.64600
Mn1867     Mn  0.70184213  0.71314109  0.12347084     1.10700
C1868       C  0.74935984  0.65532555  0.07141730     0.98400
C1869       C  0.74773265  0.65319872  0.17432853     0.98500
N1870       N  0.81671575  0.77693429  0.15183253    -0.06800
N1871       N  0.83617046  0.78775518  0.16844556    -0.62200
N1872       N  0.81884366  0.74723428  0.09834202    -0.06200
N1873       N  0.83935769  0.73755691  0.08191087    -0.58900
N1874       N  0.81808216  0.77992613  0.09936887    -0.07500
N1875       N  0.83805270  0.79304492  0.08366302    -0.61800
N1876       N  0.81760368  0.74421691  0.15073614    -0.06500
N1877       N  0.83749990  0.73213799  0.16655603    -0.59000
Mn1878     Mn  0.78927788  0.80596803  0.12600301     1.20200
Mn1879     Mn  0.79202054  0.71626662  0.12368319     1.10100
Cl1880     Cl  0.74548738  0.75954053  0.12461829    -0.86900
C1881       C  0.84842115  0.75943360  0.17772158     0.95400
C1882       C  0.85108574  0.76640244  0.07272842     0.95200
N1883       N  0.98241329  0.55851299  0.65043631    -0.07100
N1884       N  0.97053856  0.57934883  0.66589280    -0.59200
N1885       N  0.51785253  0.55913332  0.59870720    -0.06800
N1886       N  0.53013068  0.57944283  0.58295508    -0.61300
N1887       N  0.98493297  0.55901038  0.59817302    -0.06400
N1888       N  0.97412134  0.57904723  0.58198541    -0.59200
N1889       N  0.51541180  0.55832062  0.65080960    -0.06000
N1890       N  0.52661020  0.57891606  0.66646552    -0.61700
C1891       C  0.99846272  0.59162742  0.67600933     0.95100
C1892       C  0.00262380  0.59139395  0.57243318     0.94900
N1893       N  0.57343415  0.97090575  0.59904435    -0.07300
N1894       N  0.59346022  0.95992675  0.58272419    -0.59800
N1895       N  0.57136864  0.50277313  0.65167461    -0.05400
N1896       N  0.59152690  0.51421571  0.66763533    -0.61000
N1897       N  0.57193398  0.97004327  0.65130947    -0.07300
N1898       N  0.59279380  0.95856476  0.66684995    -0.60100
N1899       N  0.57323685  0.50354555  0.59928125    -0.05000
N1900       N  0.59318535  0.51548643  0.58317164    -0.61100
Mn1901     Mn  0.54512153  0.53152660  0.62517918     1.18400
C1902       C  0.60540780  0.98808440  0.57279815     0.97200
C1903       C  0.60428966  0.98641439  0.67718143     0.97800
N1904       N  0.92922495  0.50347293  0.59685430    -0.07300
N1905       N  0.90988165  0.51534018  0.58064626    -0.63600
N1906       N  0.92496423  0.96966986  0.64873972    -0.06100
N1907       N  0.90159286  0.95849195  0.66307959    -0.64300
N1908       N  0.92584959  0.50240900  0.64886747    -0.06800
N1909       N  0.90323439  0.51403832  0.66322787    -0.63900
N1910       N  0.92893286  0.97072518  0.59658836    -0.05700
N1911       N  0.90937838  0.95971409  0.58019665    -0.64600
Mn1912     Mn  0.95501512  0.53142359  0.62366500     1.10700
C1913       C  0.89791239  0.98777546  0.57017617     0.98400
C1914       C  0.88833161  0.98657478  0.67218429     0.98500
N1915       N  0.51491191  0.91455314  0.65014685    -0.06800
N1916       N  0.52534398  0.89415414  0.66623002    -0.62200
N1917       N  0.98479365  0.91479919  0.59722348    -0.06200
N1918       N  0.97437427  0.89424545  0.58117253    -0.58900
N1919       N  0.51793503  0.91504427  0.59791296    -0.07500
N1920       N  0.53050905  0.89474778  0.58241995    -0.61800
N1921       N  0.98177405  0.91458712  0.64951445    -0.06500
N1922       N  0.96918597  0.89430041  0.66510543    -0.59000
Mn1923     Mn  0.54523523  0.94195257  0.62466936     1.20200
Mn1924     Mn  0.95446891  0.94171126  0.62300704     1.10100
Cl1925     Cl  0.99990220  0.98662928  0.62423549    -0.86900
C1926       C  0.99645983  0.88176707  0.67558442     0.95400
C1927       C  0.00308385  0.88179577  0.57203683     0.95200
N1928       N  0.57412962  0.97187012  0.35041150    -0.07100
N1929       N  0.59723417  0.96177282  0.33572174    -0.59200
N1930       N  0.57321418  0.50090514  0.40343850    -0.06800
N1931       N  0.59413234  0.51115592  0.41932477    -0.61300
N1932       N  0.57306328  0.96817199  0.40234843    -0.06400
N1933       N  0.59385498  0.95562833  0.41748889    -0.59200
N1934       N  0.57410902  0.50457436  0.35159206    -0.06000
N1935       N  0.59709236  0.51727981  0.33778289    -0.61700
C1936       C  0.61103781  0.99044348  0.32773967     0.95100
C1937       C  0.60683897  0.98262408  0.42806622     0.94900
N1938       N  0.98443920  0.55687208  0.40493978    -0.07300
N1939       N  0.97279149  0.57663100  0.42106851    -0.59800
N1940       N  0.51745753  0.56031927  0.35261217    -0.05400
N1941       N  0.52862175  0.58214556  0.33739372    -0.61000
N1942       N  0.98436144  0.55955458  0.35258630    -0.07300
N1943       N  0.97238286  0.58043884  0.33732597    -0.60100
N1944       N  0.51745894  0.55694483  0.40499618    -0.05000
N1945       N  0.52886212  0.57683777  0.42110775    -0.61100
Mn1946     Mn  0.54613574  0.53133105  0.37815260     1.18400
C1947       C  0.00073126  0.58874218  0.43123283     0.97200
C1948       C  0.00016784  0.59411546  0.32780294     0.97800
N1949       N  0.51643523  0.91270882  0.40098089    -0.07300
N1950       N  0.52745956  0.89245682  0.41704602    -0.63600
N1951       N  0.98346820  0.91679329  0.34856699    -0.06100
N1952       N  0.97147929  0.89878642  0.33169765    -0.64300
N1953       N  0.51647701  0.91660084  0.34825922    -0.06800
N1954       N  0.52750131  0.89834501  0.33108992    -0.63900
N1955       N  0.98339105  0.91288882  0.40092463    -0.05700
N1956       N  0.97129623  0.89281000  0.41685183    -0.64600
Mn1957     Mn  0.54564524  0.94151068  0.37540865     1.10700
C1958       C  0.99895879  0.88038771  0.42700129     0.98400
C1959       C  0.99914417  0.88761214  0.32070217     0.98500
N1960       N  0.92793220  0.50444927  0.35142605    -0.06800
N1961       N  0.90729695  0.51710720  0.33621852    -0.62200
N1962       N  0.92852737  0.96841577  0.40280331    -0.06200
N1963       N  0.90904440  0.95600916  0.41901062    -0.58900
N1964       N  0.92886186  0.50114131  0.40369085    -0.07500
N1965       N  0.90963505  0.51168892  0.42051882    -0.61800
N1966       N  0.92721293  0.97171599  0.35068378    -0.06500
N1967       N  0.90575749  0.96141651  0.33510129    -0.59000
Mn1968     Mn  0.95581394  0.53109529  0.37815475     1.20200
Mn1969     Mn  0.95503984  0.94172111  0.37569275     1.10100
Cl1970     Cl  0.00073850  0.98641319  0.37680224    -0.86900
C1971       C  0.89383907  0.99004114  0.32611562     0.95400
C1972       C  0.89774463  0.98326943  0.43011974     0.95200
C1973       C  0.99887566  0.76731387  0.51204993     0.01300
C1974       C  0.99593985  0.76674027  0.48805538     0.01300
C1975       C  0.99574061  0.73584136  0.47679481    -0.19200
C1976       C  0.99809408  0.70562604  0.48881178     0.01300
C1977       C  0.00120957  0.70624050  0.51276386     0.01300
C1978       C  0.00115138  0.73710016  0.52404216    -0.19200
H1979       H  0.00283435  0.73764360  0.54245869     0.03300
H1980       H  0.49443600  0.73525128  0.45836209     0.03300
C1981       C  0.78179904  0.98867877  0.51244716     0.01300
C1982       C  0.78174828  0.98458265  0.48865379     0.01300
C1983       C  0.75115880  0.98348319  0.47705488    -0.19200
C1984       C  0.72053842  0.98588570  0.48878799     0.01300
C1985       C  0.72049784  0.98966061  0.51270734     0.01300
C1986       C  0.75122169  0.99072400  0.52426463    -0.19200
H1987       H  0.75135878  0.99277536  0.54267469     0.03300
H1988       H  0.75118749  0.98100893  0.45866481     0.03300
C1989       C  0.99111480  0.71062181  0.26793870     0.85500
C1990       C  0.95903816  0.71434828  0.25359226    -0.54700
C1991       C  0.95988715  0.74051012  0.23856784     0.08400
C1992       C  0.99241788  0.76150196  0.23979717     0.19400
C1993       C  0.52040790  0.71021303  0.25075571    -0.55400
C1994       C  0.52120558  0.73643351  0.23590167     0.08500
C1995       C  0.99400964  0.74486639  0.27961837    -0.55000
C1996       C  0.99505701  0.77122687  0.26501956     0.09100
H1997       H  0.93743066  0.69789068  0.25521891     0.13600
H1998       H  0.99289389  0.78318839  0.22802012    -0.00600
H1999       H  0.53971625  0.69121890  0.25101951     0.13900
H2000       H  0.99375938  0.74904524  0.29781609     0.13700
C2001       C  0.52825714  0.84452059  0.29773753    -0.10100
C2002       C  0.99861106  0.86220221  0.30230133     0.06100
C2003       C  0.96888349  0.85282286  0.29071294    -0.03900
C2004       C  0.96885958  0.82455843  0.27670210    -0.08300
C2005       C  0.99793381  0.80548411  0.27389785     0.05200
C2006       C  0.52802751  0.81627758  0.28390067    -0.03400
Br2007     Br  0.56890718  0.79162342  0.28052768    -0.03100
H2008       H  0.55148430  0.85142383  0.30600494     0.09100
H2009       H  0.94557411  0.81630226  0.26906362     0.07100
Br2010     Br  0.92719079  0.87646170  0.29352788    -0.03500
C2011       C  0.98757396  0.61955842  0.29016593    -0.10100
C2012       C  0.99896358  0.62318183  0.31249824     0.06100
C2013       C  0.50739775  0.65491376  0.32047028    -0.03900
C2014       C  0.50434105  0.68259133  0.30621360    -0.08300
C2015       C  0.99223598  0.67982969  0.28366421     0.05200
C2016       C  0.98494494  0.64718380  0.27558635    -0.03400
Br2017     Br  0.97278730  0.63760975  0.24466985    -0.03100
H2018       H  0.98124624  0.59497176  0.28389602     0.09100
H2019       H  0.51275990  0.70596536  0.31309223     0.07100
Br2020     Br  0.52223875  0.66205374  0.35112337    -0.03500
C2021       C  0.97054581  0.63495192  0.45033668    -0.10100
C2022       C  0.00013568  0.61624487  0.44815806     0.06100
C2023       C  0.52842988  0.62563838  0.46121032    -0.03900
C2024       C  0.52719448  0.65442914  0.47471220    -0.08300
C2025       C  0.99804871  0.67397009  0.47574299     0.05200
C2026       C  0.96932482  0.66341447  0.46392159    -0.03400
Br2027     Br  0.92740674  0.68644682  0.46626495    -0.03100
H2028       H  0.94826598  0.62795093  0.44098980     0.09100
H2029       H  0.54918997  0.66187143  0.48422433     0.07100
Br2030     Br  0.56902595  0.60002766  0.46204833    -0.03500
C2031       C  0.96966534  0.83207203  0.44476627    -0.10100
C2032       C  0.99770676  0.85344678  0.44439217     0.06100
C2033       C  0.52401792  0.84766329  0.45995880    -0.03900
C2034       C  0.52260114  0.81989293  0.47447887    -0.08300
C2035       C  0.99502256  0.79774445  0.47411808     0.05200
C2036       C  0.96818821  0.80445996  0.45928511    -0.03400
Br2037     Br  0.92867964  0.77700047  0.45806830    -0.03100
H2038       H  0.94903140  0.83624530  0.43320525     0.09100
H2039       H  0.54337299  0.81520223  0.48582508     0.07100
Br2040     Br  0.56163577  0.87725138  0.46303535    -0.03500
C2041       C  0.64429817  0.51229486  0.45516096    -0.10100
C2042       C  0.63418474  0.98185702  0.44523891     0.06100
C2043       C  0.65191050  0.95249035  0.45105534    -0.03900
C2044       C  0.67908411  0.95427060  0.46599262    -0.08300
C2045       C  0.68931899  0.98467684  0.47533310     0.05200
C2046       C  0.67175071  0.51395421  0.46983136    -0.03400
Br2047     Br  0.68604259  0.55686764  0.48035145    -0.03100
H2048       H  0.63149057  0.53518989  0.45092284     0.09100
H2049       H  0.69298099  0.93186263  0.46990956     0.07100
Br2050     Br  0.64257458  0.90929641  0.43856161    -0.03500
C2051       C  0.84949236  0.95449336  0.44838435    -0.10100
C2052       C  0.87105756  0.98228426  0.44761509     0.06100
C2053       C  0.86485192  0.00940735  0.46227556    -0.03900
C2054       C  0.83576612  0.00959982  0.47567097    -0.08300
C2055       C  0.81331527  0.98259564  0.47542381     0.05200
C2056       C  0.82093187  0.95437656  0.46227237    -0.03400
Br2057     Br  0.79336016  0.91499977  0.46291911    -0.03100
H2058       H  0.85422205  0.93310690  0.43764514     0.09100
H2059       H  0.83044485  0.03111939  0.48613474     0.07100
Br2060     Br  0.89552175  0.54627761  0.46560866    -0.03500
C2061       C  0.66694299  0.96361652  0.52596290    -0.10100
C2062       C  0.68902961  0.99095049  0.52624274     0.06100
C2063       C  0.68200958  0.01800281  0.54071475    -0.03900
C2064       C  0.65386699  0.01695383  0.55496736    -0.08300
C2065       C  0.63245241  0.98907795  0.55543421     0.05200
C2066       C  0.63872554  0.96250667  0.54029437    -0.03400
Br2067     Br  0.60960145  0.92447610  0.53781942    -0.03100
H2068       H  0.67215282  0.94261070  0.51497704     0.09100
H2069       H  0.64943156  0.03770114  0.56633893     0.07100
Br2070     Br  0.71004989  0.05696375  0.54203506    -0.03500
C2071       C  0.83277294  0.96054829  0.52703709    -0.10100
C2072       C  0.81339977  0.98947292  0.52546148     0.06100
C2073       C  0.82446039  0.01877446  0.53615178    -0.03900
C2074       C  0.85285580  0.01801899  0.54992214    -0.08300
C2075       C  0.87114426  0.98846478  0.55284560     0.05200
C2076       C  0.86184782  0.95996495  0.54022527    -0.03400
Br2077     Br  0.88833479  0.42008679  0.53917134    -0.03100
H2078       H  0.82516260  0.93830951  0.51797965     0.09100
H2079       H  0.86019084  0.04056632  0.55870860     0.07100
Br2080     Br  0.80250106  0.06064394  0.53159388    -0.03500
C2081       C  0.53004361  0.64142514  0.55561917    -0.10100
C2082       C  0.00344258  0.61846694  0.55524750     0.06100
C2083       C  0.97746787  0.62300158  0.53931467    -0.03900
C2084       C  0.97737118  0.65139922  0.52541559    -0.08300
C2085       C  0.00331857  0.67517054  0.52654822     0.05200
C2086       C  0.53029178  0.66944405  0.54142463    -0.03400
Br2087     Br  0.56856108  0.69866078  0.54270644    -0.03100
H2088       H  0.55056351  0.63804160  0.56738944     0.09100
H2089       H  0.95666057  0.65513929  0.51386664     0.07100
Br2090     Br  0.94238563  0.59068096  0.53488526    -0.03500
C2091       C  0.97378005  0.84597906  0.54378449    -0.10100
C2092       C  0.00387387  0.85454069  0.55480508     0.06100
C2093       C  0.53307460  0.83536559  0.55005179    -0.03900
C2094       C  0.53097489  0.80784036  0.53549571    -0.08300
C2095       C  0.00045990  0.79879296  0.52526656     0.05200
C2096       C  0.97182725  0.81832594  0.52935514    -0.03400
Br2097     Br  0.92877278  0.80661729  0.51736761    -0.03100
H2098       H  0.95118789  0.86018950  0.54698397     0.09100
H2099       H  0.55307216  0.79273089  0.53259706     0.07100
Br2100     Br  0.57603773  0.84295810  0.56383335    -0.03500
C2101       C  0.56432416  0.77244394  0.21658789    -0.10100
C2102       C  0.54887356  0.74109434  0.21886987     0.06100
C2103       C  0.56092127  0.71455456  0.20539680    -0.03900
C2104       C  0.58890805  0.71922494  0.19119158    -0.08300
C2105       C  0.60519462  0.75028354  0.18934671     0.05200
C2106       C  0.59210170  0.77731558  0.20202958    -0.03400
Br2107     Br  0.61111709  0.82129281  0.20112452    -0.03100
H2108       H  0.55525569  0.79319105  0.22661424     0.09100
H2109       H  0.59755122  0.69832755  0.18114145     0.07100
Br2110     Br  0.53875828  0.67200533  0.20394088    -0.03500
C2111       C  0.90893591  0.75454258  0.18488053    -0.10100
C2112       C  0.87652167  0.75833087  0.19379827     0.06100
C2113       C  0.87151379  0.75730567  0.21751522    -0.03900
C2114       C  0.89900544  0.75221839  0.23193959    -0.08300
C2115       C  0.93160832  0.74796335  0.22297221     0.05200
C2116       C  0.93632050  0.74927939  0.19914730    -0.03400
Br2117     Br  0.97858668  0.74058509  0.18467032    -0.03100
H2118       H  0.91278910  0.75449591  0.16658717     0.09100
H2119       H  0.89487155  0.75108752  0.25018127     0.07100
Br2120     Br  0.82746604  0.76117644  0.23066449    -0.03500
C2121       C  0.77896800  0.60776727  0.05304354    -0.10100
C2122       C  0.75010419  0.62773184  0.05456720     0.06100
C2123       C  0.72211313  0.61955811  0.04089737    -0.03900
C2124       C  0.72283455  0.59102840  0.02721307    -0.08300
C2125       C  0.75113507  0.57042605  0.02658794     0.05200
C2126       C  0.77963530  0.57939267  0.03924184    -0.03400
Br2127     Br  0.82017171  0.55376409  0.03793506    -0.03100
H2128       H  0.80090072  0.61369018  0.06307903     0.09100
H2129       H  0.70099214  0.58462159  0.01721816     0.07100
Br2130     Br  0.68250181  0.64657174  0.03938914    -0.03500
C2131       C  0.71770497  0.93643907  0.03463279    -0.10100
C2132       C  0.74888694  0.94699333  0.02606898     0.06100
C2133       C  0.77787868  0.92918116  0.03183859    -0.03900
C2134       C  0.77543599  0.90182148  0.04662149    -0.08300
C2135       C  0.74429897  0.89171659  0.05600824     0.05200
C2136       C  0.71499403  0.90898115  0.04925923    -0.03400
Br2137     Br  0.67043197  0.89825750  0.05977005    -0.03100
H2138       H  0.69530130  0.95015932  0.03021246     0.09100
H2139       H  0.79825152  0.88899373  0.05126575     0.07100
Br2140     Br  0.82145918  0.94249009  0.02096795    -0.03500
C2141       C  0.77644548  0.59069263  0.97424756    -0.10100
C2142       C  0.74742970  0.57097581  0.97603776     0.06100
C2143       C  0.71824059  0.58075922  0.96454352    -0.03900
C2144       C  0.71890950  0.60900704  0.95056524    -0.08300
C2145       C  0.74850873  0.62790491  0.94762060     0.05200
C2146       C  0.77724629  0.61904289  0.96030937    -0.03400
Br2147     Br  0.81823083  0.64449106  0.95997741    -0.03100
H2148       H  0.79880746  0.58360169  0.98343586     0.09100
H2149       H  0.69636236  0.61552129  0.94140263     0.07100
Br2150     Br  0.67693512  0.55620746  0.96743513    -0.03500
C2151       C  0.77894031  0.91313253  0.94614355    -0.10100
C2152       C  0.75160392  0.89083897  0.94644906     0.06100
C2153       C  0.72503279  0.89639014  0.96207319    -0.03900
C2154       C  0.72545613  0.92466644  0.97601591    -0.08300
C2155       C  0.75221558  0.94751662  0.97503031     0.05200
C2156       C  0.77936900  0.94127070  0.96012797    -0.03400
Br2157     Br  0.81762650  0.97049941  0.95807523    -0.03100
H2158       H  0.79972465  0.90928714  0.93444397     0.09100
H2159       H  0.70440762  0.92917344  0.98735737     0.07100
Br2160     Br  0.68806531  0.86593141  0.96588797    -0.03500
C2161       C  0.97039414  0.63956225  0.69498887    -0.10100
C2162       C  0.99846454  0.61870575  0.69314939     0.06100
C2163       C  0.52670740  0.62554166  0.70671892    -0.03900
C2164       C  0.52671860  0.65299424  0.72121484    -0.08300
C2165       C  0.99892365  0.67460911  0.72300212     0.05200
C2166       C  0.97045631  0.66735614  0.70939337    -0.03400
Br2167     Br  0.93131664  0.69524681  0.70832137    -0.03100
H2168       H  0.94860778  0.63500807  0.68450268     0.09100
H2169       H  0.54958889  0.65735222  0.73021877     0.07100
Br2170     Br  0.56664117  0.59875625  0.70677758    -0.03500
C2171       C  0.52644978  0.84482617  0.70245618    -0.10100
C2172       C  0.99565487  0.85483392  0.69296001     0.06100
C2173       C  0.96602909  0.83694007  0.69894354    -0.03900
C2174       C  0.96796404  0.80949237  0.71359285    -0.08300
C2175       C  0.99879220  0.79916382  0.72233088     0.05200
C2176       C  0.52821034  0.81714584  0.71681991    -0.03400
Br2177     Br  0.57157084  0.80338088  0.72692290    -0.03100
H2178       H  0.54952181  0.85786279  0.69812532     0.09100
H2179       H  0.94545191  0.79518119  0.71742840     0.07100
Br2180     Br  0.92238536  0.84618084  0.68680425    -0.03500
C2181       C  0.62129345  0.74468419  0.78955376    -0.10100
C2182       C  0.61437714  0.75827167  0.81094800     0.06100
C2183       C  0.58150521  0.76887675  0.81605972    -0.03900
C2184       C  0.55577971  0.76424804  0.80016611    -0.08300
C2185       C  0.56230742  0.74931102  0.77899045     0.05200
C2186       C  0.59594910  0.74072975  0.77342995    -0.03400
Br2187     Br  0.60991891  0.72475750  0.74398673    -0.03100
H2188       H  0.64667266  0.73707137  0.78535618     0.09100
H2189       H  0.53034444  0.77099189  0.80483461     0.07100
Br2190     Br  0.56998707  0.78719990  0.84519060    -0.03500
C2191       C  0.91986608  0.76973922  0.77746956    -0.10100
C2192       C  0.94582526  0.74785460  0.78327546     0.06100
C2193       C  0.94406409  0.73057490  0.80411327    -0.03900
C2194       C  0.91612006  0.73445173  0.81844717    -0.08300
C2195       C  0.88964961  0.75568460  0.81247793     0.05200
C2196       C  0.89183946  0.77370928  0.79188241    -0.03400
Br2197     Br  0.85567604  0.80104865  0.78157266    -0.03100
H2198       H  0.92068200  0.78258671  0.76122512     0.09100
H2199       H  0.91495156  0.72058686  0.83428987     0.07100
Br2200     Br  0.97919201  0.70111421  0.81348209    -0.03500
C2201       C  0.82108502  0.96864275  0.71785639    -0.10100
C2202       C  0.80388845  0.99910299  0.71785526     0.06100
C2203       C  0.81217596  0.52295690  0.70104230    -0.03900
C2204       C  0.83932913  0.51775551  0.68640445    -0.08300
C2205       C  0.85821138  0.98844758  0.68731168     0.05200
C2206       C  0.84788545  0.96296466  0.70257713    -0.03400
Br2207     Br  0.86986017  0.92068684  0.70417224    -0.03100
H2208       H  0.81431595  0.94961152  0.73020256     0.09100
H2209       H  0.84547722  0.53698285  0.67406120     0.07100
Br2210     Br  0.78599340  0.56242736  0.69624097    -0.03500
C2211       C  0.65560401  0.00352951  0.72979660    -0.10100
C2212       C  0.68845269  0.99756243  0.72177399     0.06100
C2213       C  0.69268680  0.98466771  0.69952740    -0.03900
C2214       C  0.66462268  0.97945617  0.68570184    -0.08300
C2215       C  0.63222376  0.98705977  0.69346469     0.05200
C2216       C  0.62769582  0.99842500  0.71585498    -0.03400
Br2217     Br  0.58382158  0.50706193  0.72799292    -0.03100
H2218       H  0.65164100  0.51272911  0.74688996     0.09100
H2219       H  0.66826692  0.97093013  0.66836596     0.07100
Br2220     Br  0.73571249  0.97674350  0.68578418    -0.03500
C2221       C  0.72190645  0.60591381  0.80852407    -0.10100
C2222       C  0.74811243  0.62925998  0.80759718     0.06100
C2223       C  0.77309802  0.62574488  0.79069965    -0.03900
C2224       C  0.77261945  0.59808258  0.77617444    -0.08300
C2225       C  0.74755551  0.57307182  0.77798506     0.05200
C2226       C  0.72124626  0.57833056  0.79406666    -0.03400
Br2227     Br  0.68354436  0.54872581  0.79800517    -0.03100
H2228       H  0.70205252  0.60854330  0.82115785     0.09100
H2229       H  0.79250892  0.59685027  0.76345394     0.07100
Br2230     Br  0.80750344  0.65878706  0.78585047    -0.03500
C2231       C  0.77772452  0.93126148  0.78285369    -0.10100
C2232       C  0.74755317  0.94824821  0.77969509     0.06100
C2233       C  0.71822625  0.93665713  0.79064546    -0.03900
C2234       C  0.71950724  0.90867374  0.80481708    -0.08300
C2235       C  0.74996393  0.89210952  0.80885703     0.05200
C2236       C  0.77935461  0.90362658  0.79741527    -0.03400
Br2237     Br  0.82293319  0.88422933  0.80113479    -0.03100
H2238       H  0.80047009  0.94044398  0.77469276     0.09100
H2239       H  0.69662881  0.90060215  0.81331711     0.07100
Br2240     Br  0.67602717  0.95888603  0.78736901    -0.03500
C2241       C  0.58452786  0.78503426  0.02515294    -0.10100
C2242       C  0.55938088  0.76056835  0.02710014     0.06100
C2243       C  0.56413007  0.73333950  0.04188300    -0.03900
C2244       C  0.59289196  0.73190047  0.05524549    -0.08300
C2245       C  0.61727335  0.75719939  0.05404293     0.05200
C2246       C  0.61363786  0.78319323  0.03814958    -0.03400
Br2247     Br  0.64823433  0.81575576  0.03266926    -0.03100
H2248       H  0.58139709  0.80585150  0.01365538     0.09100
H2249       H  0.59558085  0.71150601  0.06719985     0.07100
Br2250     Br  0.53227821  0.69743362  0.04444929    -0.03500
C2251       C  0.92139483  0.79745124  0.03329423    -0.10100
C2252       C  0.93531213  0.76717167  0.02629004     0.06100
C2253       C  0.91999777  0.73716765  0.03306714    -0.03900
C2254       C  0.89183415  0.73768846  0.04737853    -0.08300
C2255       C  0.87827376  0.76791494  0.05522256     0.05200
C2256       C  0.89274954  0.79819796  0.04728004    -0.03400
Br2257     Br  0.87536917  0.84152791  0.05446180    -0.03100
H2258       H  0.93307520  0.82065498  0.02795557     0.09100
H2259       H  0.88112108  0.71413430  0.05287540     0.07100
Br2260     Br  0.93765783  0.69484568  0.02401416    -0.03500
C2261       C  0.60214891  0.79003036  0.95220889    -0.10100
C2262       C  0.61838245  0.75948781  0.94842544     0.06100
C2263       C  0.60653608  0.73081167  0.96018289    -0.03900
C2264       C  0.57783127  0.73297069  0.97408369    -0.08300
C2265       C  0.56082428  0.76322786  0.97661394     0.05200
C2266       C  0.57361696  0.79201042  0.96600978    -0.03400
Br2267     Br  0.55288972  0.83467844  0.96994480    -0.03100
H2268       H  0.61096293  0.81252670  0.94383364     0.09100
H2269       H  0.56837171  0.71086511  0.98265724     0.07100
Br2270     Br  0.62815917  0.68819828  0.95853150    -0.03500
C2271       C  0.91344848  0.78929761  0.97577847    -0.10100
C2272       C  0.93682545  0.76329475  0.97553166     0.06100
C2273       C  0.93105107  0.73542329  0.96153427    -0.03900
C2274       C  0.90282634  0.73439883  0.94762889    -0.08300
C2275       C  0.87998416  0.76088172  0.94721440     0.05200
C2276       C  0.88498015  0.78817906  0.96197574    -0.03400
Br2277     Br  0.85350424  0.82407381  0.96475107    -0.03100
H2278       H  0.91766888  0.81088215  0.98639782     0.09100
H2279       H  0.89937863  0.71317983  0.93651914     0.07100
Br2280     Br  0.96102742  0.69809048  0.96054273    -0.03500
C2281       C  0.80737920  0.98822578  0.29963159    -0.10100
C2282       C  0.81406950  0.00081290  0.27767451     0.06100
C2283       C  0.84789565  0.50783522  0.27149258    -0.03900
C2284       C  0.87354077  0.50377524  0.28743743    -0.08300
C2285       C  0.86653869  0.99183357  0.30937326     0.05200
C2286       C  0.83325072  0.98355383  0.31534971    -0.03400
Br2287     Br  0.82173728  0.96772275  0.34526597    -0.03100
H2288       H  0.78178155  0.98292130  0.30491456     0.09100
H2289       H  0.89921251  0.50980466  0.28265662     0.07100
Br2290     Br  0.86178525  0.52096035  0.24143614    -0.03500
C2291       C  0.67734251  0.97303551  0.28224073    -0.10100
C2292       C  0.69870099  0.00054729  0.28507596     0.06100
C2293       C  0.69183709  0.52362443  0.30243457    -0.03900
C2294       C  0.66357504  0.51934818  0.31633809    -0.08300
C2295       C  0.64135539  0.99254467  0.31309106     0.05200
C2296       C  0.64855040  0.96906804  0.29589609    -0.03400
Br2297     Br  0.61816981  0.93356422  0.28842044    -0.03100
H2298       H  0.68191846  0.95575033  0.26843031     0.09100
H2299       H  0.65870958  0.53747788  0.32957728     0.07100
Br2300     Br  0.71989350  0.56193621  0.30757432    -0.03500
C2301       C  0.72500900  0.59463911  0.22275532    -0.10100
C2302       C  0.74919283  0.56921168  0.22010980     0.06100
C2303       C  0.77328015  0.57295719  0.20228612    -0.03900
C2304       C  0.77286952  0.60101401  0.18821744    -0.08300
C2305       C  0.74828365  0.62548996  0.19075299     0.05200
C2306       C  0.72413511  0.62215163  0.20817327    -0.03400
Br2307     Br  0.69003531  0.65500220  0.21354155    -0.03100
H2308       H  0.70626947  0.59403099  0.23604026     0.09100
H2309       H  0.79133534  0.60312548  0.17462007     0.07100
Br2310     Br  0.80698845  0.54042864  0.19514126    -0.03500
C2311       C  0.71412424  0.93504590  0.21608448    -0.10100
C2312       C  0.74511742  0.94438693  0.22528398     0.06100
C2313       C  0.77322653  0.92410481  0.22152135    -0.03900
C2314       C  0.77060695  0.89634639  0.20727673    -0.08300
C2315       C  0.74011146  0.88803894  0.19664555     0.05200
C2316       C  0.71120066  0.90701247  0.20207078    -0.03400
Br2317     Br  0.66732839  0.89812525  0.19010830    -0.03100
H2318       H  0.69231477  0.95052293  0.21907582     0.09100
H2319       H  0.79299757  0.88194709  0.20383003     0.07100
Br2320     Br  0.81638107  0.93482851  0.23382037    -0.03500
loop_ 
_geom_bond_atom_site_label_1 
_geom_bond_atom_site_label_2 
_geom_bond_distance 
_geom_bond_site_symmetry_2 
_ccdc_geom_bond_type 
C1            C2   1.540       .  S
C1            C7   1.535       .  S
C1            C5   1.539       .  S
C1          C562   1.536       .  S
C2            H9   1.081       .  S
C2          C583   1.362       .  D
C3            C4   1.539       .  S
C3          C582   1.362       .  D
C3          C552   1.475       .  S
C4            C8   1.537       .  S
C4            C6   1.547       .  S
C4           H10   1.110       .  S
C5           H11   1.085       .  S
C5          C586   1.370       .  D
C6          C585   1.369       .  D
C6          C542   1.496       .  S
C7          H592   1.087       .  S
C7          C588   1.362   1_545  D
C8          C587   1.362       .  D
C8          C572   1.478       .  S
H12         C587   1.087       .  S
C13          C14   1.411   1_556  A
C13        C1178   1.402       .  A
C13         C532   1.480       .  S
C14        C1175   1.401       .  A
C14         C512   1.477       .  S
C15          C16   1.403   1_655  A
C15        C1174   1.401       .  A
C15          H20   1.085       .  S
C16          C17   1.409   1_554  A
C16         C502   1.478       .  S
C17          C18   1.399   1_455  A
C17         C525   1.476       .  S
C18        C1173   1.402       .  A
C18          H19   1.085       .  S
C21          C22   1.544       .  S
C21          C27   1.533       .  S
C21          C25   1.540       .  S
C21         C485   1.543       .  S
C22          H29   1.087       .  S
C22         C603   1.367       .  D
C23          C24   1.541       .  S
C23         C602   1.367       .  D
C23         C462   1.487       .  S
C24          C28   1.539       .  S
C24          C26   1.543       .  S
C24          H30   1.109       .  S
C25          H31   1.086       .  S
C25         C606   1.371       .  D
C26         C605   1.371       .  D
C26         C472   1.493       .  S
C27         H612   1.087       .  S
C27         C608   1.360   1_545  D
C28         C607   1.361       .  D
C28         C492   1.475       .  S
H32         C607   1.087       .  S
C33          C34   1.545       .  S
C33          C39   1.534       .  S
C33        C1197   1.535   1_455  S
C33        C1585   1.538   1_455  S
C34          H41   1.077       .  S
C34          C35   1.365       .  D
C35          C36   1.545       .  S
C35         C445   1.493       .  S
C36          C40   1.535       .  S
C36        C1198   1.545   1_455  S
C36          H42   1.111       .  S
C37        C1193   1.535       .  S
C37          H43   1.086       .  S
C37          C38   1.367       .  D
C38        C1196   1.545       .  S
C38         C452   1.480       .  S
C39          H44   1.087   1_455  S
C39          C40   1.360       .  D
C40        C1595   1.472   1_455  S
C45          C46   1.413   1_556  A
C45         C630   1.405       .  A
C45         C415   1.486       .  S
C46         C627   1.404       .  A
C46         C392   1.480       .  S
C47          C48   1.404       .  A
C47         C626   1.404   1_545  A
C47          H52   1.085       .  S
C48          C49   1.411   1_554  A
C48         C385   1.484       .  S
C49          C50   1.404       .  A
C49         C402   1.480       .  S
C50         C625   1.405   1_545  A
C50          H51   1.085       .  S
N53          N54   1.322       .  A
N53          N59   1.315       .  A
N53         Mn82   2.205       .  S
N54          C61   1.354       .  A
N55          N57   1.316       .  A
N55          N56   1.320       .  A
N55         Mn71   2.202       .  S
N56          C62   1.353       .  A
N57          N58   1.321       .  A
N57         Mn82   2.213       .  S
N58          C62   1.356       .  A
N59          N60   1.321       .  A
N59         Mn71   2.206       .  S
N60          C61   1.354       .  A
C61         C412   1.485       .  S
C62         C495   1.490       .  S
N63          N69   1.317       .  A
N63          N64   1.319       .  A
N63         Mn93   2.198       .  S
N64          C72   1.351       .  A
N65          N66   1.319       .  A
N65          N67   1.315       .  A
N65         Mn71   2.195       .  S
N66          C73   1.351       .  A
N67          N68   1.320       .  A
N67         Mn93   2.206       .  S
N68          C73   1.355       .  A
N69          N70   1.325       .  A
N69         Mn71   2.222       .  S
N70          C72   1.356       .  A
Mn71        Cl95   2.547       .  S
C72         C455   1.481       .  S
C73         C535   1.478       .  S
N74          N75   1.323       .  A
N74          N80   1.317       .  A
N74         Mn82   2.209       .  S
N75          C83   1.353       .  A
N76          N78   1.315       .  A
N76          N77   1.321       .  A
N76         Mn94   2.200       .  S
N77          C84   1.353       .  A
N78          N79   1.318       .  A
N78         Mn82   2.202       .  S
N79          C84   1.354       .  A
N80          N81   1.321       .  A
N80         Mn94   2.208       .  S
N81          C83   1.352       .  A
Mn82        Cl95   2.550       .  S
C83         C442   1.474       .  S
C84         C522   1.485       .  S
N85          N86   1.320       .  A
N85          N91   1.314       .  A
N85         Mn93   2.202       .  S
N86          C96   1.353       .  A
N87          N88   1.320       .  A
N87          N89   1.316       .  A
N87         Mn94   2.204       .  S
N88          C97   1.353       .  A
N89          N90   1.323       .  A
N89         Mn93   2.214       .  S
N90          C97   1.355       .  A
N91          N92   1.321       .  A
N91         Mn94   2.201       .  S
N92          C96   1.355       .  A
Mn93        Cl95   2.549       .  S
Mn94        Cl95   2.547       .  S
C96         C405   1.487       .  S
C97         C482   1.483       .  S
N98          N99   1.320       .  A
N98         N104   1.316       .  A
N98        Mn127   2.208       .  S
N99         C106   1.355       .  A
N100        N102   1.315       .  A
N100        N101   1.318       .  A
N100       Mn116   2.198       .  S
N101        C107   1.352       .  A
N102        N103   1.318       .  A
N102       Mn127   2.185       .  S
N103        C107   1.351       .  A
N104        N105   1.323       .  A
N104       Mn116   2.213       .  S
N105        C106   1.355       .  A
C106        C365   1.494       .  S
C107        C505   1.468       .  S
N108        N114   1.314       .  A
N108        N109   1.321       .  A
N108       Mn138   2.205       .  S
N109        C117   1.356       .  A
N110        N111   1.321       .  A
N110        N112   1.315       .  A
N110       Mn116   2.208       .  S
N111        C118   1.354       .  A
N112        N113   1.320       .  A
N112       Mn138   2.207       .  S
N113        C118   1.355       .  A
N114        N115   1.321       .  A
N114       Mn116   2.208       .  S
N115        C117   1.354       .  A
Mn116      Cl140   2.548       .  S
C117        C395   1.492       .  S
C118        C575   1.490       .  S
N119        N120   1.320       .  A
N119        N125   1.315       .  A
N119       Mn127   2.205       .  S
N120        C128   1.353       .  A
N121        N123   1.315       .  A
N121        N122   1.319       .  A
N121       Mn139   2.197       .  S
N122        C129   1.352       .  A
N123        N124   1.319       .  A
N123       Mn127   2.193       .  S
N124        C129   1.352       .  A
N125        N126   1.322       .  A
N125       Mn139   2.206       .  S
N126        C128   1.356       .  A
Mn127      Cl140   2.542       .  S
C128        C382   1.488       .  S
C129        C565   1.471       .  S
N130        N131   1.323       .  A
N130        N136   1.316       .  A
N130       Mn138   2.210       .  S
N131        C141   1.354       .  A
N132        N133   1.320       .  A
N132        N134   1.315       .  A
N132       Mn139   2.203       .  S
N133        C142   1.356       .  A
N134        N135   1.320       .  A
N134       Mn138   2.202       .  S
N135        C142   1.353       .  A
N136        N137   1.319       .  A
N136       Mn139   2.201       .  S
N137        C141   1.350       .  A
Mn138      Cl140   2.548       .  S
Mn139      Cl140   2.547       .  S
C141        C372   1.470       .  S
C142        C515   1.488       .  S
N143        N144   1.322       .  A
N143       N1309   1.315       .  A
N143       Mn172   2.206       .  S
N144        C151   1.356       .  A
N145        N146   1.321       .  A
N145       N1307   1.314   1_455  A
N145       Mn161   2.203       .  S
N146       C1312   1.355       .  A
N147        N148   1.320       .  A
N147       N1305   1.314       .  A
N147       Mn172   2.199       .  S
N148        C152   1.353       .  A
N149        N150   1.317       .  A
N149       N1303   1.315   1_455  A
N149       Mn161   2.194       .  S
N150       C1311   1.351   1_455  A
C151        C422   1.484       .  S
C151       N1310   1.351       .  A
C152        C342   1.482       .  S
C152       N1306   1.355       .  A
N153        N154   1.320       .  A
N153        N739   1.314       .  A
N153       Mn183   2.197       .  S
N154        C162   1.353       .  A
N155        N156   1.321       .  A
N155        N737   1.316   1_545  A
N155       Mn161   2.208       .  S
N156        C743   1.352   1_545  A
N157        N158   1.322       .  A
N157        N735   1.316       .  A
N157       Mn183   2.207       .  S
N158        C163   1.353       .  A
N159        N160   1.318       .  A
N159        N733   1.315   1_545  A
N159       Mn161   2.196       .  S
N160        C742   1.353   1_545  A
Mn161     Cl1925   2.542   1_445  S
C162        C325   1.477       .  S
C162        N740   1.353       .  A
C163        C475   1.473       .  S
C163        N736   1.352       .  A
N164        N165   1.319       .  A
N164        N750   1.315   1_545  A
N164       Mn172   2.194       .  S
N165        C753   1.353   1_545  A
N166        N167   1.326       .  A
N166        N748   1.316       .  A
N166       Mn184   2.218       .  S
N167        C174   1.357       .  A
N168        N169   1.317       .  A
N168        N746   1.316   1_545  A
N168       Mn172   2.201       .  S
N169        C754   1.353   1_545  A
N170        N171   1.319       .  A
N170        N744   1.315       .  A
N170       Mn184   2.197       .  S
N171        C173   1.353       .  A
Mn172      Cl765   2.544   1_545  S
C173        C335   1.480       .  S
C173        N745   1.353       .  A
C174        C465   1.489       .  S
C174        N749   1.353       .  A
N175        N176   1.320       .  A
N175       N1341   1.315   1_455  A
N175       Mn183   2.204       .  S
N176       C1346   1.356   1_455  A
N177        N178   1.322       .  A
N177       N1339   1.315       .  A
N177       Mn184   2.216       .  S
N178        C187   1.357       .  A
N179        N180   1.320       .  A
N179       N1337   1.315   1_455  A
N179       Mn183   2.200       .  S
N180       C1347   1.352       .  A
N181        N182   1.318       .  A
N181       N1335   1.316       .  A
N181       Mn184   2.196       .  S
N182        C186   1.351       .  A
Mn183     Cl1345   2.550   1_455  S
Mn184      Cl185   2.549       .  S
Cl185     Mn1901   2.542       .  S
Cl185      Mn752   2.544       .  S
Cl185     Mn1343   2.550       .  S
C186        C432   1.485       .  S
C186       N1336   1.356       .  A
C187        C352   1.493       .  S
C187       N1340   1.352       .  A
N188        N189   1.322       .  A
N188        N774   1.317       .  A
N188       Mn217   2.208       .  S
N189        C196   1.354       .  A
N190        N191   1.321       .  A
N190        N772   1.316   1_545  A
N190       Mn206   2.211       .  S
N191        C777   1.356   1_545  A
N192        N193   1.320       .  A
N192        N770   1.316       .  A
N192       Mn217   2.206       .  S
N193        C197   1.353       .  A
N194        N195   1.318       .  A
N194        N768   1.317   1_545  A
N194       Mn206   2.196       .  S
N195        C776   1.351   1_545  A
C196        C555   1.479       .  S
C196        N775   1.351       .  A
C197        C302   1.490       .  S
C197        N771   1.356       .  A
N198        N199   1.320       .  A
N198       N1364   1.314       .  A
N198       Mn228   2.207       .  S
N199        C207   1.355       .  A
N200        N201   1.323       .  A
N200       N1362   1.316   1_455  A
N200       Mn206   2.223       .  S
N201       C1368   1.356       .  A
N202        N203   1.319       .  A
N202       N1360   1.316       .  A
N202       Mn228   2.192       .  S
N203        C208   1.349       .  A
N204        N205   1.321       .  A
N204       N1358   1.314   1_455  A
N204       Mn206   2.200       .  S
N205       C1367   1.354       .  A
Mn206     Cl1970   2.548   1_545  S
C207        C282   1.488       .  S
C207       N1365   1.354       .  A
C208        C272   1.472       .  S
C208       N1361   1.356       .  A
N209        N210   1.323       .  A
N209       N1375   1.315   1_455  A
N209       Mn217   2.212       .  S
N210       C1378   1.356   1_455  A
N211        N212   1.319       .  A
N211       N1373   1.315       .  A
N211       Mn229   2.194       .  S
N212        C219   1.352       .  A
N213        N214   1.322       .  A
N213       N1371   1.315   1_455  A
N213       Mn217   2.217       .  S
N214       C1379   1.358   1_455  A
N215        N216   1.320       .  A
N215       N1369   1.315       .  A
N215       Mn229   2.200       .  S
N216        C218   1.353       .  A
Mn217     Cl1390   2.548       .  S
C218        C292   1.486       .  S
C218       N1370   1.356       .  A
C219        C262   1.488       .  S
C219       N1374   1.358       .  A
N220        N221   1.321       .  A
N220        N806   1.316   1_545  A
N220       Mn228   2.206       .  S
N221        C811   1.352   1_545  A
N222        N223   1.318       .  A
N222        N804   1.314       .  A
N222       Mn229   2.189       .  S
N223        C232   1.353       .  A
N224        N225   1.317       .  A
N224        N802   1.314   1_545  A
N224       Mn228   2.191       .  S
N225        C812   1.352   1_545  A
N226        N227   1.322       .  A
N226        N800   1.316       .  A
N226       Mn229   2.206       .  S
N227        C231   1.353       .  A
Mn228      Cl810   2.540   1_545  S
Mn229      Cl230   2.550       .  S
Cl230     Mn1946   2.548       .  S
Cl230     Mn1377   2.548       .  S
Cl230      Mn808   2.540       .  S
C231        C545   1.473       .  S
C231        N801   1.352       .  A
C232        C312   1.473       .  S
C232        N805   1.352       .  A
C233        C234   1.415       .  A
C233        C238   1.405       .  A
C233        C355   1.486       .  S
C234        C235   1.407       .  A
C234        C295   1.489       .  S
C235        C236   1.406       .  A
C235       H1400   1.084       .  S
C236        C237   1.413       .  A
C236        C285   1.486       .  S
C237        C238   1.406       .  A
C237        C345   1.489       .  S
C238        H239   1.084       .  S
H240       C1395   1.084       .  S
C241        C242   1.407       .  A
C241        C246   1.399       .  A
C241        C332   1.477       .  S
C242        C243   1.401       .  A
C242        C315   1.475       .  S
C243        C244   1.399       .  A
C243        H248   1.085       .  S
C244        C245   1.413       .  A
C244        C305   1.479       .  S
C245        C246   1.404       .  A
C245        C322   1.480       .  S
C246        H247   1.085       .  S
C249        C250   1.543       .  S
C249        C255   1.542       .  S
C249       C1413   1.534       .  S
C249        C275   1.542       .  S
C250        H257   1.085       .  S
C250        C251   1.370       .  D
C251        C252   1.544       .  S
C251        C375   1.488       .  S
C252        C256   1.537       .  S
C252       C1414   1.545       .  S
C252        H258   1.111       .  S
C253       C1409   1.534   1_455  S
C253        H259   1.086       .  S
C253        C254   1.366       .  D
C254       C1412   1.545   1_455  S
C254        C362   1.493       .  S
C255        H260   1.082       .  S
C255        C256   1.361       .  D
C256        C265   1.476       .  S
C261        C266   1.397       .  A
C261       C1422   1.406   1_455  A
C261        H268   1.083       .  S
C262        C263   1.420       .  A
C262       C1421   1.406       .  A
C263        C264   1.403       .  A
C263       Br270   1.923       .  S
C264        C265   1.400       .  A
C264        H269   1.084       .  S
C265       C1426   1.405       .  A
C266       C1425   1.405   1_455  A
C266       Br267   1.918       .  S
C271        C272   1.399       .  A
C271        C276   1.404       .  A
C271        H278   1.084       .  S
C272       C1433   1.401       .  A
C273        C274   1.396       .  A
C273       C1432   1.401   1_455  A
C273       Br280   1.921       .  S
C274       C1435   1.416   1_455  A
C274        H279   1.076       .  S
C275        C276   1.424       .  A
C275       C1434   1.416       .  A
C276       Br277   1.922       .  S
C281        C282   1.406       .  A
C281        C286   1.396       .  A
C281        H288   1.083       .  S
C282       C1443   1.417       .  A
C283        C284   1.404       .  A
C283       C1442   1.417       .  A
C283       Br290   1.921       .  S
C284       C1445   1.404   1_455  A
C284        H289   1.084       .  S
C285        C286   1.407       .  A
C285       C1444   1.404       .  A
C286       Br287   1.916       .  S
C291        C292   1.405       .  A
C291        C296   1.398       .  A
C291        H298   1.083       .  S
C292       C1453   1.413       .  A
C293        C294   1.403       .  A
C293       C1452   1.413   1_455  A
C293       Br300   1.917       .  S
C294       C1455   1.404   1_455  A
C294        H299   1.083       .  S
C295        C296   1.410       .  A
C295       C1454   1.404       .  A
C296       Br297   1.918       .  S
C301        C306   1.398       .  A
C301        C882   1.409   1_545  A
C301        H308   1.083       .  S
C302        C303   1.420       .  A
C302        C881   1.409       .  A
C303        C304   1.400       .  A
C303       Br310   1.920       .  S
C304        C305   1.400       .  A
C304        H309   1.084       .  S
C305        C886   1.404       .  A
C306        C885   1.404   1_545  A
C306       Br307   1.917       .  S
C311        C312   1.405       .  A
C311        C316   1.394       .  A
C311        H318   1.083       .  S
C312        C313   1.412       .  A
C313        C314   1.395       .  A
C313       Br900   1.922       .  S
C314        C315   1.402       .  A
C314        H319   1.082       .  S
C315        C316   1.406       .  A
C316       Br317   1.920       .  S
Br320       C893   1.922       .  S
C321        C322   1.403       .  A
C321        C326   1.399       .  A
C321        H328   1.083       .  S
C322        C323   1.409       .  A
C323        C324   1.394       .  A
C323       Br330   1.919       .  S
C324        C325   1.404       .  A
C324        H329   1.083       .  S
C325        C326   1.412       .  A
C326       Br327   1.919       .  S
C331        C332   1.401       .  A
C331        C336   1.398       .  A
C331        H338   1.084       .  S
C332        C333   1.405       .  A
C333        C334   1.396       .  A
C333       Br340   1.918       .  S
C334        C335   1.406       .  A
C334        H339   1.083       .  S
C335        C336   1.414       .  A
C336       Br917   1.921       .  S
Br337       C916   1.921       .  S
C341        C346   1.398       .  A
C341       C1502   1.404       .  A
C341        H348   1.083       .  S
C342        C343   1.412       .  A
C342       C1501   1.404       .  A
C343        C344   1.401       .  A
C343       Br350   1.921       .  S
C344        C345   1.405       .  A
C344        H349   1.083       .  S
C345       C1506   1.410       .  A
C346       C1505   1.410       .  A
C346       Br347   1.920       .  S
C351        C352   1.408       .  A
C351        C356   1.401       .  A
C351        H358   1.083       .  S
C352       C1513   1.420       .  A
C353        C354   1.401       .  A
C353       C1512   1.420       .  A
C353       Br360   1.921       .  S
C354       C1515   1.401       .  A
C354        H359   1.084       .  S
C355        C356   1.406       .  A
C355       C1514   1.401       .  A
C356       Br357   1.915       .  S
C361        C362   1.404       .  A
C361        C366   1.405       .  A
C361        H368   1.083       .  S
C362        C363   1.412       .  A
C363        C364   1.398       .  A
C363       Br370   1.921       .  S
C364        C365   1.406       .  A
C364        H369   1.083       .  S
C365        C366   1.417       .  A
C366       Br367   1.918       .  S
C371        C372   1.398       .  A
C371        C376   1.397       .  A
C371        H378   1.084       .  S
C372        C373   1.406       .  A
C373        C374   1.405       .  A
C373       Br380   1.918       .  S
C374        C375   1.408       .  A
C374        H379   1.083       .  S
C375        C376   1.411       .  A
C376       Br377   1.913       .  S
C381        C382   1.407       .  A
C381        C386   1.400       .  A
C381        H388   1.083       .  S
C382        C383   1.416       .  A
C383        C384   1.401       .  A
C383       Br390   1.921       .  S
C384        C385   1.402       .  A
C384        H389   1.083       .  S
C385        C386   1.407       .  A
C386       Br387   1.920       .  S
C391        C392   1.399       .  A
C391        C396   1.399       .  A
C391        H398   1.084       .  S
C392        C393   1.404       .  A
C393        C394   1.401       .  A
C393       Br400   1.917       .  S
C394        C395   1.410       .  A
C394        H399   1.083       .  S
C395        C396   1.419       .  A
C396       Br397   1.920       .  S
C401        C402   1.400       .  A
C401        C406   1.400       .  A
C401        H408   1.084       .  S
C402        C403   1.406       .  A
C403        C404   1.398       .  A
C403       Br410   1.919       .  S
C404        C405   1.408       .  A
C404        H409   1.083       .  S
C405        C406   1.417       .  A
C406       Br407   1.921       .  S
C411        C412   1.406       .  A
C411        C416   1.399       .  A
C411        H418   1.083       .  S
C412        C413   1.414       .  A
C413        C414   1.402       .  A
C413       Br420   1.920       .  S
C414        C415   1.403       .  A
C414        H419   1.083       .  S
C415        C416   1.409       .  A
C416       Br417   1.921       .  S
C421        C422   1.404       .  A
C421        C426   1.402       .  A
C421        H428   1.083       .  S
C422       C1583   1.410       .  A
C423        C424   1.394       .  A
C423       C1582   1.410   1_455  A
C423       Br430   1.924       .  S
C424       C1585   1.412   1_455  A
C424        H429   1.070       .  S
C425       C1193   1.538       .  S
C425        C426   1.421       .  A
C425       C1584   1.412       .  A
C426       Br427   1.925       .  S
C431        C436   1.396       .  A
C431       C1592   1.407   1_455  A
C431        H438   1.083       .  S
C432        C433   1.419       .  A
C432       C1591   1.406       .  A
C433        C434   1.399       .  A
C433       Br440   1.921       .  S
C434        C435   1.399       .  A
C434        H439   1.084       .  S
C435       C1200   1.472       .  S
C435       C1596   1.403       .  A
C436       C1595   1.403   1_455  A
C436       Br437   1.914       .  S
C441        C442   1.397       .  A
C441        C446   1.398       .  A
C441        H448   1.084       .  S
C442        C443   1.409       .  A
C443        C444   1.403       .  A
C443       Br450   1.917       .  S
C444        C445   1.405       .  A
C444        H449   1.083       .  S
C445        C446   1.420       .  A
C446       Br447   1.925       .  S
C451        C452   1.404       .  A
C451        C456   1.405       .  A
C451        H458   1.084       .  S
C452        C453   1.406       .  A
C453        C454   1.399       .  A
C453       Br460   1.919       .  S
C454        C455   1.405       .  A
C454        H459   1.084       .  S
C455        C456   1.410       .  A
C456       Br457   1.916       .  S
C461        C462   1.405       .  A
C461        C466   1.409       .  A
C461        H468   1.084       .  S
C462       C1043   1.409       .  A
C463        C464   1.393       .  A
C463       C1042   1.409   1_545  A
C463       Br470   1.923       .  S
C464       C1045   1.404   1_545  A
C464        H469   1.083       .  S
C465        C466   1.416       .  A
C465       C1044   1.404       .  A
C466       Br467   1.916       .  S
C471        C472   1.408       .  A
C471        C476   1.400       .  A
C471       H1058   1.083       .  S
C472        C473   1.416       .  A
C473        C474   1.402       .  A
C473       Br480   1.916       .  S
C474        C475   1.400       .  A
C474        H479   1.084       .  S
C475        C476   1.404       .  A
C476      Br1057   1.917       .  S
Br477      C1056   1.917   1_545  S
H478       C1051   1.083       .  S
C481        C482   1.400       .  A
C481        C486   1.397       .  A
C481        H488   1.086       .  S
C482        C483   1.407       .  A
C483        C484   1.402       .  A
C483       Br490   1.921       .  S
C484        C485   1.415       .  A
C484        H489   1.086       .  S
C485        C486   1.422       .  A
C486       Br487   1.922       .  S
C491        C492   1.398       .  A
C491        C496   1.401       .  A
C491        H498   1.084       .  S
C492        C493   1.405       .  A
C493        C494   1.398       .  A
C493       Br500   1.917       .  S
C494        C495   1.407       .  A
C494        H499   1.083       .  S
C495        C496   1.419       .  A
C496       Br497   1.919       .  S
C501        C502   1.403       .  A
C501        C506   1.395       .  A
C501        H508   1.082       .  S
C502        C503   1.409       .  A
C503        C504   1.395       .  A
C503       Br510   1.920       .  S
C504        C505   1.403       .  A
C504        H509   1.084       .  S
C505        C506   1.407       .  A
C506       Br507   1.919       .  S
C511        C512   1.400       .  A
C511        C516   1.401       .  A
C511        H518   1.084       .  S
C512        C513   1.403       .  A
C513        C514   1.396       .  A
C513       Br520   1.917       .  S
C514        C515   1.408       .  A
C514        H519   1.083       .  S
C515        C516   1.419       .  A
C516       Br517   1.922       .  S
C521        C522   1.406       .  A
C521        C526   1.393       .  A
C521        H528   1.083       .  S
C522        C523   1.418       .  A
C523        C524   1.402       .  A
C523       Br530   1.922       .  S
C524        C525   1.401       .  A
C524        H529   1.084       .  S
C525        C526   1.403       .  A
C526       Br527   1.919       .  S
C531        C532   1.402       .  A
C531        C536   1.399       .  A
C531        H538   1.082       .  S
C532        C533   1.409       .  A
C533        C534   1.395       .  A
C533       Br540   1.922       .  S
C534        C535   1.403       .  A
C534        H539   1.083       .  S
C535        C536   1.413       .  A
C536       Br537   1.921       .  S
C541        C542   1.407       .  A
C541        C546   1.402       .  A
C541        H548   1.083       .  S
C542       C1123   1.419       .  A
C543        C544   1.401       .  A
C543       C1122   1.419       .  A
C543       Br550   1.917       .  S
C544       C1125   1.398   1_545  A
C544        H549   1.084       .  S
C545        C546   1.406       .  A
C545       C1124   1.398       .  A
C546       Br547   1.918       .  S
C551        C552   1.402       .  A
C551        C556   1.402       .  A
C551        H558   1.084       .  S
C552       C1133   1.408       .  A
C553        C554   1.395       .  A
C553       C1132   1.408       .  A
C553       Br560   1.922       .  S
C554       C1135   1.405   1_545  A
C554        H559   1.083       .  S
C555        C556   1.412       .  A
C555       C1134   1.405       .  A
C556       Br557   1.919       .  S
C561        C562   1.415       .  A
C561        C566   1.397       .  A
C561        H568   1.075       .  S
C562        C563   1.421       .  A
C563        C564   1.396       .  A
C563       Br570   1.922       .  S
C564        C565   1.398       .  A
C564        H569   1.084       .  S
C565        C566   1.404       .  A
C566       Br567   1.923       .  S
C571        C572   1.401       .  A
C571        C576   1.401       .  A
C571        H578   1.084       .  S
C572        C573   1.404       .  A
C573        C574   1.399       .  A
C573       Br580   1.916       .  S
C574        C575   1.409       .  A
C574        H579   1.083       .  S
C575        C576   1.418       .  A
C576       Br577   1.920       .  S
C581        C582   1.540       .  S
C581        C587   1.535       .  S
C581        C585   1.539       .  S
C581       C1142   1.536       .  S
C582        H589   1.081       .  S
C583        C584   1.539   1_545  S
C583       C1132   1.475       .  S
C584        C588   1.537       .  S
C584        C586   1.547   1_565  S
C584        H590   1.110       .  S
C585        H591   1.085       .  S
C586       C1122   1.496       .  S
C588       C1152   1.478       .  S
C593        C594   1.411   1_556  A
C593       C1758   1.402       .  A
C593       C1112   1.480       .  S
C594       C1755   1.401       .  A
C594       C1092   1.477       .  S
C595       C1754   1.401       .  A
C595        C596   1.403   1_655  A
C595        H600   1.085       .  S
C596        C597   1.409   1_554  A
C596       C1082   1.478       .  S
C597        C598   1.399   1_455  A
C597       C1105   1.477       .  S
C598       C1753   1.402       .  A
C598        H599   1.085       .  S
C601        C602   1.544       .  S
C601        C607   1.533       .  S
C601        C605   1.540       .  S
C601       C1065   1.543       .  S
C602        H609   1.087       .  S
C603        C604   1.541   1_545  S
C603       C1042   1.487   1_545  S
C604        C608   1.538       .  S
C604        C606   1.543   1_565  S
C604        H610   1.109       .  S
C605        H611   1.086       .  S
C606       C1052   1.493   1_545  S
C608       C1072   1.475       .  S
C613        C614   1.545       .  S
C613        C619   1.534   1_455  S
C613       C1777   1.535   1_455  S
C613       C2165   1.538   1_455  S
C614        H621   1.077       .  S
C614        C615   1.365       .  D
C615        C616   1.545       .  S
C615       C1025   1.493       .  S
C616        C620   1.534       .  S
C616       C1778   1.545   1_455  S
C616        H622   1.111       .  S
C617       C1773   1.535       .  S
C617        H623   1.086       .  S
C617        C618   1.367       .  D
C618       C1776   1.545       .  S
C618       C1032   1.480       .  S
C619        H624   1.087       .  S
C619        C620   1.360   1_655  D
C620       C2175   1.472   1_455  S
C625        C626   1.413   1_556  A
C625        C995   1.486       .  S
C626        C972   1.480       .  S
C627        C628   1.404       .  A
C627        H632   1.085       .  S
C628        C629   1.410   1_554  A
C628        C965   1.484       .  S
C629        C630   1.404       .  A
C629        C982   1.480       .  S
C630        H631   1.085       .  S
N633        N634   1.322       .  A
N633        N639   1.315       .  A
N633       Mn662   2.205       .  S
N634        C641   1.354       .  A
N635        N637   1.316       .  A
N635        N636   1.319       .  A
N635       Mn651   2.202       .  S
N636        C642   1.352       .  A
N637        N638   1.321       .  A
N637       Mn662   2.213       .  S
N638        C642   1.356       .  A
N639        N640   1.321       .  A
N639       Mn651   2.207       .  S
N640        C641   1.354       .  A
C641        C992   1.485       .  S
C642       C1075   1.489       .  S
N643        N649   1.317       .  A
N643        N644   1.319       .  A
N643       Mn673   2.198       .  S
N644        C652   1.351       .  A
N645        N646   1.319       .  A
N645        N647   1.315       .  A
N645       Mn651   2.195       .  S
N646        C653   1.351       .  A
N647        N648   1.320       .  A
N647       Mn673   2.206       .  S
N648        C653   1.355       .  A
N649        N650   1.325       .  A
N649       Mn651   2.222       .  S
N650        C652   1.357       .  A
Mn651      Cl675   2.547       .  S
C652       C1035   1.482       .  S
C653       C1115   1.478       .  S
N654        N655   1.323       .  A
N654        N660   1.317       .  A
N654       Mn662   2.209       .  S
N655        C663   1.353       .  A
N656        N658   1.315       .  A
N656        N657   1.321       .  A
N656       Mn674   2.200       .  S
N657        C664   1.354       .  A
N658        N659   1.318       .  A
N658       Mn662   2.203       .  S
N659        C664   1.355       .  A
N660        N661   1.321       .  A
N660       Mn674   2.208       .  S
N661        C663   1.352       .  A
Mn662      Cl675   2.550       .  S
C663       C1022   1.474       .  S
C664       C1102   1.485       .  S
N665        N666   1.320       .  A
N665        N671   1.314       .  A
N665       Mn673   2.202       .  S
N666        C676   1.353       .  A
N667        N668   1.319       .  A
N667        N669   1.316       .  A
N667       Mn674   2.204       .  S
N668        C677   1.353       .  A
N669        N670   1.323       .  A
N669       Mn673   2.214       .  S
N670        C677   1.355       .  A
N671        N672   1.321       .  A
N671       Mn674   2.201       .  S
N672        C676   1.355       .  A
Mn673      Cl675   2.549       .  S
Mn674      Cl675   2.547       .  S
C676        C985   1.487       .  S
C677       C1062   1.483       .  S
N678        N679   1.320       .  A
N678        N684   1.316       .  A
N678       Mn707   2.208       .  S
N679        C686   1.355       .  A
N680        N682   1.315       .  A
N680        N681   1.318       .  A
N680       Mn696   2.198       .  S
N681        C687   1.352       .  A
N682        N683   1.318       .  A
N682       Mn707   2.185       .  S
N683        C687   1.351       .  A
N684        N685   1.323       .  A
N684       Mn696   2.213       .  S
N685        C686   1.355       .  A
C686        C945   1.494       .  S
C687       C1085   1.468       .  S
N688        N694   1.314       .  A
N688        N689   1.321       .  A
N688       Mn718   2.205       .  S
N689        C697   1.356       .  A
N690        N691   1.321       .  A
N690        N692   1.315       .  A
N690       Mn696   2.208       .  S
N691        C698   1.354       .  A
N692        N693   1.320       .  A
N692       Mn718   2.206       .  S
N693        C698   1.355       .  A
N694        N695   1.321       .  A
N694       Mn696   2.208       .  S
N695        C697   1.354       .  A
Mn696      Cl720   2.548       .  S
C697        C975   1.492       .  S
C698       C1155   1.490       .  S
N699        N700   1.320       .  A
N699        N705   1.315       .  A
N699       Mn707   2.205       .  S
N700        C708   1.353       .  A
N701        N703   1.315       .  A
N701        N702   1.319       .  A
N701       Mn719   2.197       .  S
N702        C709   1.352       .  A
N703        N704   1.319       .  A
N703       Mn707   2.193       .  S
N704        C709   1.352       .  A
N705        N706   1.322       .  A
N705       Mn719   2.206       .  S
N706        C708   1.356       .  A
Mn707      Cl720   2.542       .  S
C708        C962   1.487       .  S
C709       C1145   1.471       .  S
N710        N711   1.323       .  A
N710        N716   1.316       .  A
N710       Mn718   2.210       .  S
N711        C721   1.354       .  A
N712        N713   1.320       .  A
N712        N714   1.315       .  A
N712       Mn719   2.203       .  S
N713        C722   1.356       .  A
N714        N715   1.320       .  A
N714       Mn718   2.201       .  S
N715        C722   1.353       .  A
N716        N717   1.319       .  A
N716       Mn719   2.201       .  S
N717        C721   1.350       .  A
Mn718      Cl720   2.548       .  S
Mn719      Cl720   2.547       .  S
C721        C952   1.470       .  S
C722       C1095   1.488       .  S
N723        N724   1.322       .  A
N723       N1889   1.315       .  A
N723       Mn752   2.206       .  S
N724        C731   1.356       .  A
N725       N1887   1.314   1_455  A
N725        N726   1.321       .  A
N725       Mn741   2.203       .  S
N726       C1892   1.355       .  A
N727       N1885   1.314       .  A
N727        N728   1.320       .  A
N727       Mn752   2.199       .  S
N728        C732   1.353       .  A
N729       N1883   1.315   1_455  A
N729        N730   1.317       .  A
N729       Mn741   2.194       .  S
N730       C1891   1.351   1_455  A
C731       C1002   1.483       .  S
C731       N1890   1.351       .  A
C732        C922   1.482       .  S
C732       N1886   1.355       .  A
N733        N734   1.320       .  A
N733       Mn763   2.198       .  S
N734        C742   1.353       .  A
N735        N736   1.321       .  A
N735       Mn741   2.207       .  S
N737        N738   1.322       .  A
N737       Mn763   2.207       .  S
N738        C743   1.353       .  A
N739        N740   1.318       .  A
N739       Mn741   2.196       .  S
Mn741     Cl1345   2.542   1_455  S
C742        C905   1.478       .  S
C743       C1055   1.473       .  S
N744        N745   1.319       .  A
N744       Mn752   2.194       .  S
N746        N747   1.326       .  A
N746       Mn764   2.218       .  S
N747        C754   1.357       .  A
N748        N749   1.317       .  A
N748       Mn752   2.201       .  S
N750        N751   1.319       .  A
N750       Mn764   2.196       .  S
N751        C753   1.353       .  A
C753        C915   1.480       .  S
C754       C1045   1.489       .  S
N755        N756   1.320       .  A
N755       N1921   1.316   1_455  A
N755       Mn763   2.204       .  S
N756       C1926   1.356   1_455  A
N757        N758   1.322       .  A
N757       N1919   1.315       .  A
N757       Mn764   2.216       .  S
N758        C767   1.357       .  A
N759       N1917   1.315   1_455  A
N759        N760   1.320       .  A
N759       Mn763   2.200       .  S
N760       C1927   1.352       .  A
N761       N1915   1.315       .  A
N761        N762   1.318       .  A
N761       Mn764   2.196       .  S
N762        C766   1.351       .  A
Mn763     Cl1925   2.550   1_455  S
Mn764      Cl765   2.549       .  S
Cl765     Mn1321   2.542   1_565  S
Cl765     Mn1923   2.550       .  S
C766       C1012   1.485       .  S
C766       N1916   1.356       .  A
C767        C932   1.493       .  S
C767       N1920   1.352       .  A
N768        N769   1.322       .  A
N768       Mn797   2.208       .  S
N769        C776   1.354       .  A
N770        N771   1.321       .  A
N770       Mn786   2.212       .  S
N772        N773   1.320       .  A
N772       Mn797   2.206       .  S
N773        C777   1.353       .  A
N774        N775   1.318       .  A
N774       Mn786   2.195       .  S
C776       C1135   1.479       .  S
C777        C882   1.490       .  S
N778       N1944   1.314       .  A
N778        N779   1.320       .  A
N778       Mn808   2.206       .  S
N779        C787   1.355       .  A
N780        N781   1.323       .  A
N780       N1942   1.316   1_455  A
N780       Mn786   2.223       .  S
N781       C1948   1.356       .  A
N782       N1940   1.316       .  A
N782        N783   1.319       .  A
N782       Mn808   2.192       .  S
N783        C788   1.349       .  A
N784       N1938   1.314   1_455  A
N784        N785   1.321       .  A
N784       Mn786   2.199       .  S
N785       C1947   1.354       .  A
Mn786     Cl1390   2.549       .  S
C787        C862   1.488       .  S
C787       N1945   1.354       .  A
C788        C852   1.472       .  S
C788       N1941   1.356       .  A
N789        N790   1.323       .  A
N789       N1955   1.315   1_455  A
N789       Mn797   2.213       .  S
N790       C1958   1.356   1_455  A
N791       N1953   1.315       .  A
N791        N792   1.319       .  A
N791       Mn809   2.194       .  S
N792        C799   1.352       .  A
N793       N1951   1.315   1_455  A
N793        N794   1.322       .  A
N793       Mn797   2.218       .  S
N794       C1959   1.358   1_455  A
N795       N1949   1.315       .  A
N795        N796   1.320       .  A
N795       Mn809   2.201       .  S
N796        C798   1.353       .  A
Mn797     Cl1970   2.548       .  S
C798        C872   1.486       .  S
C798       N1950   1.356       .  A
C799        C842   1.488       .  S
C799       N1954   1.358       .  A
N800        N801   1.321       .  A
N800       Mn808   2.205       .  S
N802        N803   1.318       .  A
N802       Mn809   2.189       .  S
N803        C812   1.353       .  A
N804        N805   1.317       .  A
N804       Mn808   2.191       .  S
N806        N807   1.322       .  A
N806       Mn809   2.206       .  S
N807        C811   1.353       .  A
Mn809      Cl810   2.550       .  S
Cl810     Mn1366   2.549   1_565  S
Cl810     Mn1957   2.548       .  S
C811       C1125   1.474       .  S
C812        C892   1.473       .  S
C813        C814   1.415       .  A
C813        C818   1.405       .  A
C813        C935   1.486       .  S
C814        C815   1.407       .  A
C814        C875   1.489       .  S
C815        C816   1.406       .  A
C815       H1980   1.084       .  S
C816        C817   1.413       .  A
C816        C865   1.487       .  S
C817        C818   1.407       .  A
C817        C925   1.489       .  S
C818        H819   1.084       .  S
H820       C1975   1.084       .  S
C821        C822   1.407       .  A
C821        C826   1.400       .  A
C821        C912   1.477       .  S
C822        C823   1.401       .  A
C822        C895   1.475       .  S
C823        C824   1.400       .  A
C823        H828   1.085       .  S
C824        C825   1.413       .  A
C824        C885   1.479       .  S
C825        C826   1.404       .  A
C825        C902   1.480       .  S
C826        H827   1.085       .  S
C829        C830   1.543       .  S
C829        C835   1.542       .  S
C829       C1993   1.534       .  S
C829        C855   1.542       .  S
C830        H837   1.085       .  S
C830        C831   1.370       .  D
C831        C832   1.544       .  S
C831        C955   1.488       .  S
C832        C836   1.537       .  S
C832       C1994   1.545       .  S
C832        H838   1.111       .  S
C833       C1989   1.534   1_455  S
C833        H839   1.086       .  S
C833        C834   1.366       .  D
C834       C1992   1.545   1_455  S
C834        C942   1.493       .  S
C835        H840   1.082       .  S
C835        C836   1.361       .  D
C836        C845   1.476       .  S
C841       C2002   1.406   1_455  A
C841        C846   1.397       .  A
C841        H848   1.083       .  S
C842       C2001   1.406       .  A
C842        C843   1.420       .  A
C843        C844   1.403       .  A
C843       Br850   1.923       .  S
C844        C845   1.400       .  A
C844        H849   1.084       .  S
C845       C2006   1.405       .  A
C846       C2005   1.405   1_455  A
C846       Br847   1.918       .  S
C851        C852   1.399       .  A
C851        C856   1.404       .  A
C851        H858   1.084       .  S
C852       C2013   1.401       .  A
C853       C2012   1.401   1_455  A
C853        C854   1.396       .  A
C853       Br860   1.921       .  S
C854       C2015   1.416   1_455  A
C854        H859   1.076       .  S
C855       C2014   1.416       .  A
C855        C856   1.424       .  A
C856       Br857   1.922       .  S
C861        C862   1.406       .  A
C861        C866   1.396       .  A
C861        H868   1.083       .  S
C862       C2023   1.417       .  A
C863       C2022   1.417       .  A
C863        C864   1.404       .  A
C863       Br870   1.921       .  S
C864       C2025   1.404   1_455  A
C864        H869   1.084       .  S
C865       C2024   1.404       .  A
C865        C866   1.407       .  A
C866       Br867   1.916       .  S
C871        C872   1.405       .  A
C871        C876   1.398       .  A
C871        H878   1.083       .  S
C872       C2033   1.413       .  A
C873       C2032   1.413   1_455  A
C873        C874   1.403       .  A
C873       Br880   1.917       .  S
C874       C2035   1.404   1_455  A
C874        H879   1.083       .  S
C875       C2034   1.404       .  A
C875        C876   1.410       .  A
C876       Br877   1.918       .  S
C881        C886   1.398       .  A
C881        H888   1.083       .  S
C882        C883   1.420       .  A
C883        C884   1.400       .  A
C883       Br890   1.920       .  S
C884        C885   1.400       .  A
C884        H889   1.084       .  S
C886       Br887   1.917       .  S
C891        C892   1.405       .  A
C891        C896   1.394       .  A
C891        H898   1.083       .  S
C892        C893   1.412   1_565  A
C893        C894   1.395       .  A
C894        C895   1.402   1_545  A
C894        H899   1.082       .  S
C895        C896   1.406       .  A
C896       Br897   1.920       .  S
C901        C902   1.403       .  A
C901        C906   1.399       .  A
C901        H908   1.083       .  S
C902        C903   1.409   1_565  A
C903        C904   1.394       .  A
C903       Br910   1.919       .  S
C904        C905   1.404   1_545  A
C904        H909   1.083       .  S
C905        C906   1.413       .  A
C906       Br907   1.919       .  S
C911        C912   1.401       .  A
C911        C916   1.398       .  A
C911        H918   1.084       .  S
C912        C913   1.405   1_565  A
C913        C914   1.395       .  A
C913       Br920   1.918       .  S
C914        C915   1.406   1_545  A
C914        H919   1.083       .  S
C915        C916   1.414       .  A
C921       C2082   1.404       .  A
C921        C926   1.398       .  A
C921        H928   1.083       .  S
C922       C2081   1.404       .  A
C922        C923   1.412       .  A
C923        C924   1.401       .  A
C923       Br930   1.921       .  S
C924        C925   1.405       .  A
C924        H929   1.083       .  S
C925       C2086   1.410       .  A
C926       C2085   1.410       .  A
C926       Br927   1.920       .  S
C931        C932   1.408       .  A
C931        C936   1.401       .  A
C931        H938   1.083       .  S
C932       C2093   1.420       .  A
C933       C2092   1.420       .  A
C933        C934   1.401       .  A
C933       Br940   1.921       .  S
C934       C2095   1.401       .  A
C934        H939   1.084       .  S
C935       C2094   1.401       .  A
C935        C936   1.406       .  A
C936       Br937   1.915       .  S
C941        C942   1.404       .  A
C941        C946   1.405       .  A
C941        H948   1.083       .  S
C942        C943   1.413       .  A
C943        C944   1.398       .  A
C943       Br950   1.921       .  S
C944        C945   1.406       .  A
C944        H949   1.083       .  S
C945        C946   1.417       .  A
C946       Br947   1.918       .  S
C951        C952   1.398       .  A
C951        C956   1.397       .  A
C951        H958   1.084       .  S
C952        C953   1.406       .  A
C953        C954   1.405       .  A
C953       Br960   1.918       .  S
C954        C955   1.408       .  A
C954        H959   1.083       .  S
C955        C956   1.411       .  A
C956       Br957   1.913       .  S
C961        C962   1.407       .  A
C961        C966   1.400       .  A
C961        H968   1.083       .  S
C962        C963   1.416       .  A
C963        C964   1.401       .  A
C963       Br970   1.921       .  S
C964        C965   1.402       .  A
C964        H969   1.083       .  S
C965        C966   1.407       .  A
C966       Br967   1.920       .  S
C971        C972   1.399       .  A
C971        C976   1.399       .  A
C971        H978   1.084       .  S
C972        C973   1.404       .  A
C973        C974   1.401       .  A
C973       Br980   1.917       .  S
C974        C975   1.410       .  A
C974        H979   1.083       .  S
C975        C976   1.419       .  A
C976       Br977   1.920       .  S
C981        C982   1.400       .  A
C981        C986   1.400       .  A
C981        H988   1.084       .  S
C982        C983   1.406       .  A
C983        C984   1.398       .  A
C983       Br990   1.919       .  S
C984        C985   1.407       .  A
C984        H989   1.083       .  S
C985        C986   1.417       .  A
C986       Br987   1.921       .  S
C991        C992   1.405       .  A
C991        C996   1.398       .  A
C991        H998   1.083       .  S
C992        C993   1.414       .  A
C993        C994   1.402       .  A
C993      Br1000   1.920       .  S
C994        C995   1.403       .  A
C994        H999   1.083       .  S
C995        C996   1.409       .  A
C996       Br997   1.921       .  S
C1001      C1002   1.404       .  A
C1001      C1006   1.402       .  A
C1001      H1008   1.083       .  S
C1002      C2163   1.410       .  A
C1003      C2162   1.410   1_455  A
C1003      C1004   1.394       .  A
C1003     Br1010   1.924       .  S
C1004      C2165   1.412   1_455  A
C1004      H1009   1.070       .  S
C1005      C1773   1.538       .  S
C1005      C2164   1.412       .  A
C1005      C1006   1.421       .  A
C1006     Br1007   1.925       .  S
C1011      C2172   1.406   1_455  A
C1011      C1016   1.396       .  A
C1011      H1018   1.083       .  S
C1012      C2171   1.407       .  A
C1012      C1013   1.419       .  A
C1013      C1014   1.399       .  A
C1013     Br1020   1.921       .  S
C1014      C1015   1.398       .  A
C1014      H1019   1.084       .  S
C1015      C1780   1.472       .  S
C1015      C2176   1.403       .  A
C1016      C2175   1.403   1_455  A
C1016     Br1017   1.914       .  S
C1021      C1022   1.397       .  A
C1021      C1026   1.398       .  A
C1021      H1028   1.084       .  S
C1022      C1023   1.409       .  A
C1023      C1024   1.403       .  A
C1023     Br1030   1.917       .  S
C1024      C1025   1.405       .  A
C1024      H1029   1.083       .  S
C1025      C1026   1.420       .  A
C1026     Br1027   1.925       .  S
C1031      C1032   1.404       .  A
C1031      C1036   1.405       .  A
C1031      H1038   1.084       .  S
C1032      C1033   1.406       .  A
C1033      C1034   1.399       .  A
C1033     Br1040   1.919       .  S
C1034      C1035   1.405       .  A
C1034      H1039   1.084       .  S
C1035      C1036   1.410       .  A
C1036     Br1037   1.916       .  S
C1041      C1042   1.405       .  A
C1041      C1046   1.409       .  A
C1041      H1048   1.084       .  S
C1043      C1044   1.393       .  A
C1043     Br1050   1.923       .  S
C1044      H1049   1.083       .  S
C1045      C1046   1.416       .  A
C1046     Br1047   1.916       .  S
C1051      C1052   1.409   1_545  A
C1051      C1056   1.400   1_545  A
C1052      C1053   1.416       .  A
C1053      C1054   1.402       .  A
C1053     Br1060   1.916       .  S
C1054      C1055   1.400       .  A
C1054      H1059   1.084       .  S
C1055      C1056   1.404       .  A
C1061      C1062   1.400       .  A
C1061      C1066   1.397       .  A
C1061      H1068   1.086       .  S
C1062      C1063   1.407       .  A
C1063      C1064   1.402       .  A
C1063     Br1070   1.921       .  S
C1064      C1065   1.415       .  A
C1064      H1069   1.086       .  S
C1065      C1066   1.422       .  A
C1066     Br1067   1.922       .  S
C1071      C1072   1.398       .  A
C1071      C1076   1.401       .  A
C1071      H1078   1.084       .  S
C1072      C1073   1.405       .  A
C1073      C1074   1.398       .  A
C1073     Br1080   1.917       .  S
C1074      C1075   1.407       .  A
C1074      H1079   1.083       .  S
C1075      C1076   1.420       .  A
C1076     Br1077   1.919       .  S
C1081      C1082   1.403       .  A
C1081      C1086   1.395       .  A
C1081      H1088   1.081       .  S
C1082      C1083   1.409       .  A
C1083      C1084   1.395       .  A
C1083     Br1090   1.920       .  S
C1084      C1085   1.403       .  A
C1084      H1089   1.084       .  S
C1085      C1086   1.407       .  A
C1086     Br1087   1.919       .  S
C1091      C1092   1.400       .  A
C1091      C1096   1.401       .  A
C1091      H1098   1.084       .  S
C1092      C1093   1.403       .  A
C1093      C1094   1.396       .  A
C1093     Br1100   1.917       .  S
C1094      C1095   1.408       .  A
C1094      H1099   1.083       .  S
C1095      C1096   1.419       .  A
C1096     Br1097   1.922       .  S
C1101      C1102   1.407       .  A
C1101      C1106   1.393       .  A
C1101      H1108   1.083       .  S
C1102      C1103   1.418       .  A
C1103      C1104   1.402       .  A
C1103     Br1110   1.922       .  S
C1104      C1105   1.401       .  A
C1104      H1109   1.084       .  S
C1105      C1106   1.403       .  A
C1106     Br1107   1.919       .  S
C1111      C1112   1.402       .  A
C1111      C1116   1.399       .  A
C1111      H1118   1.082       .  S
C1112      C1113   1.409       .  A
C1113      C1114   1.395       .  A
C1113     Br1120   1.922       .  S
C1114      C1115   1.403       .  A
C1114      H1119   1.083       .  S
C1115      C1116   1.413       .  A
C1116     Br1117   1.921       .  S
C1121      C1122   1.407   1_565  A
C1121      C1126   1.402       .  A
C1121      H1128   1.083       .  S
C1123      C1124   1.401       .  A
C1123     Br1130   1.917       .  S
C1124      H1129   1.084       .  S
C1125      C1126   1.406       .  A
C1126     Br1127   1.918       .  S
C1131      C1132   1.402   1_565  A
C1131      C1136   1.402       .  A
C1131      H1138   1.084       .  S
C1133      C1134   1.395       .  A
C1133     Br1140   1.922       .  S
C1134      H1139   1.083       .  S
C1135      C1136   1.412       .  A
C1136     Br1137   1.919       .  S
C1141      C1142   1.415       .  A
C1141      C1146   1.397       .  A
C1141      H1148   1.075       .  S
C1142      C1143   1.421       .  A
C1143      C1144   1.396       .  A
C1143     Br1150   1.922       .  S
C1144      C1145   1.398       .  A
C1144      H1149   1.084       .  S
C1145      C1146   1.404       .  A
C1146     Br1147   1.922       .  S
C1151      C1152   1.401       .  A
C1151      C1156   1.401       .  A
C1151      H1158   1.084       .  S
C1152      C1153   1.404       .  A
C1153      C1154   1.399       .  A
C1153     Br1160   1.916       .  S
C1154      C1155   1.409       .  A
C1154      H1159   1.083       .  S
C1155      C1156   1.418       .  A
C1156     Br1157   1.920       .  S
C1161      C1162   1.540       .  S
C1161      C1167   1.535       .  S
C1161      C1165   1.539       .  S
C1161      C1722   1.536       .  S
C1162      H1169   1.081       .  S
C1162      C1743   1.362       .  D
C1163      C1164   1.539       .  S
C1163      C1742   1.362       .  D
C1163      C1712   1.475       .  S
C1164      C1168   1.537       .  S
C1164      C1166   1.547       .  S
C1164      H1170   1.110       .  S
C1165      H1171   1.085       .  S
C1165      C1746   1.369       .  D
C1166      C1745   1.370       .  D
C1166      C1702   1.496       .  S
C1167      H1752   1.087       .  S
C1167      C1748   1.362   1_545  D
C1168      C1747   1.362       .  D
C1168      C1732   1.478       .  S
H1172      C1747   1.087       .  S
C1173      C1174   1.411   1_556  A
C1173      C1692   1.480       .  S
C1174      C1672   1.477       .  S
C1175      C1176   1.403       .  A
C1175      H1180   1.085       .  S
C1176      C1177   1.409   1_554  A
C1176      C1662   1.478       .  S
C1177      C1178   1.399       .  A
C1177      C1685   1.477       .  S
C1178      H1179   1.085       .  S
C1181      C1182   1.544       .  S
C1181      C1187   1.533       .  S
C1181      C1185   1.540       .  S
C1181      C1645   1.543       .  S
C1182      H1189   1.087       .  S
C1182      C1763   1.367       .  D
C1183      C1184   1.541       .  S
C1183      C1762   1.367       .  D
C1183      C1622   1.487       .  S
C1184      C1188   1.538       .  S
C1184      C1186   1.543       .  S
C1184      H1190   1.109       .  S
C1185      H1191   1.086       .  S
C1185      C1766   1.371       .  D
C1186      C1765   1.371       .  D
C1186      C1632   1.493       .  S
C1187      H1772   1.087       .  S
C1187      C1768   1.361   1_545  D
C1188      C1767   1.360       .  D
C1188      C1652   1.475       .  S
H1192      C1767   1.087       .  S
C1193      C1194   1.545       .  S
C1193      C1199   1.534       .  S
C1194      H1201   1.077       .  S
C1194      C1195   1.365       .  D
C1195      C1196   1.545       .  S
C1195      C1605   1.493       .  S
C1196      C1200   1.534       .  S
C1196      H1202   1.111       .  S
C1197      H1203   1.086       .  S
C1197      C1198   1.367       .  D
C1198      C1612   1.480       .  S
C1199      H1204   1.087       .  S
C1199      C1200   1.360       .  D
C1205      C1206   1.413   1_556  A
C1205      C1790   1.405       .  A
C1205      C1575   1.486       .  S
C1206      C1787   1.404       .  A
C1206      C1552   1.480       .  S
C1207      C1786   1.404   1_545  A
C1207      C1208   1.404       .  A
C1207      H1212   1.085       .  S
C1208      C1209   1.410   1_554  A
C1208      C1545   1.484       .  S
C1209      C1210   1.404       .  A
C1209      C1562   1.480       .  S
C1210      C1785   1.405   1_545  A
C1210      H1211   1.085       .  S
N1213      N1214   1.322       .  A
N1213      N1219   1.315       .  A
N1213     Mn1242   2.205       .  S
N1214      C1221   1.354       .  A
N1215      N1217   1.316       .  A
N1215      N1216   1.319       .  A
N1215     Mn1231   2.202       .  S
N1216      C1222   1.352       .  A
N1217      N1218   1.321       .  A
N1217     Mn1242   2.213       .  S
N1218      C1222   1.356       .  A
N1219      N1220   1.321       .  A
N1219     Mn1231   2.207       .  S
N1220      C1221   1.354       .  A
C1221      C1572   1.485       .  S
C1222      C1655   1.489       .  S
N1223      N1229   1.317       .  A
N1223      N1224   1.319       .  A
N1223     Mn1253   2.198       .  S
N1224      C1232   1.351       .  A
N1225      N1226   1.319       .  A
N1225      N1227   1.315       .  A
N1225     Mn1231   2.195       .  S
N1226      C1233   1.351       .  A
N1227      N1228   1.320       .  A
N1227     Mn1253   2.206       .  S
N1228      C1233   1.355       .  A
N1229      N1230   1.325       .  A
N1229     Mn1231   2.222       .  S
N1230      C1232   1.357       .  A
Mn1231    Cl1255   2.547       .  S
C1232      C1615   1.482       .  S
C1233      C1695   1.478       .  S
N1234      N1235   1.323       .  A
N1234      N1240   1.317       .  A
N1234     Mn1242   2.209       .  S
N1235      C1243   1.353       .  A
N1236      N1238   1.315       .  A
N1236      N1237   1.321       .  A
N1236     Mn1254   2.200       .  S
N1237      C1244   1.354       .  A
N1238      N1239   1.318       .  A
N1238     Mn1242   2.203       .  S
N1239      C1244   1.355       .  A
N1240      N1241   1.321       .  A
N1240     Mn1254   2.208       .  S
N1241      C1243   1.352       .  A
Mn1242    Cl1255   2.550       .  S
C1243      C1602   1.474       .  S
C1244      C1682   1.485       .  S
N1245      N1246   1.320       .  A
N1245      N1251   1.314       .  A
N1245     Mn1253   2.202       .  S
N1246      C1256   1.353       .  A
N1247      N1248   1.319       .  A
N1247      N1249   1.316       .  A
N1247     Mn1254   2.204       .  S
N1248      C1257   1.353       .  A
N1249      N1250   1.323       .  A
N1249     Mn1253   2.214       .  S
N1250      C1257   1.355       .  A
N1251      N1252   1.321       .  A
N1251     Mn1254   2.201       .  S
N1252      C1256   1.355       .  A
Mn1253    Cl1255   2.549       .  S
Mn1254    Cl1255   2.547       .  S
C1256      C1565   1.487       .  S
C1257      C1642   1.483       .  S
N1258      N1259   1.320       .  A
N1258      N1264   1.316       .  A
N1258     Mn1287   2.208       .  S
N1259      C1266   1.355       .  A
N1260      N1262   1.315       .  A
N1260      N1261   1.318       .  A
N1260     Mn1276   2.198       .  S
N1261      C1267   1.352       .  A
N1262      N1263   1.318       .  A
N1262     Mn1287   2.185       .  S
N1263      C1267   1.351       .  A
N1264      N1265   1.323       .  A
N1264     Mn1276   2.213       .  S
N1265      C1266   1.355       .  A
C1266      C1525   1.494       .  S
C1267      C1665   1.468       .  S
N1268      N1274   1.314       .  A
N1268      N1269   1.321       .  A
N1268     Mn1298   2.205       .  S
N1269      C1277   1.356       .  A
N1270      N1271   1.321       .  A
N1270      N1272   1.315       .  A
N1270     Mn1276   2.208       .  S
N1271      C1278   1.354       .  A
N1272      N1273   1.320       .  A
N1272     Mn1298   2.206       .  S
N1273      C1278   1.355       .  A
N1274      N1275   1.321       .  A
N1274     Mn1276   2.208       .  S
N1275      C1277   1.354       .  A
Mn1276    Cl1300   2.548       .  S
C1277      C1555   1.492       .  S
C1278      C1735   1.490       .  S
N1279      N1280   1.320       .  A
N1279      N1285   1.315       .  A
N1279     Mn1287   2.205       .  S
N1280      C1288   1.353       .  A
N1281      N1283   1.315       .  A
N1281      N1282   1.319       .  A
N1281     Mn1299   2.197       .  S
N1282      C1289   1.352       .  A
N1283      N1284   1.319       .  A
N1283     Mn1287   2.193       .  S
N1284      C1289   1.352       .  A
N1285      N1286   1.322       .  A
N1285     Mn1299   2.206       .  S
N1286      C1288   1.356       .  A
Mn1287    Cl1300   2.542       .  S
C1288      C1542   1.487       .  S
C1289      C1725   1.471       .  S
N1290      N1291   1.323       .  A
N1290      N1296   1.316       .  A
N1290     Mn1298   2.210       .  S
N1291      C1301   1.354       .  A
N1292      N1293   1.320       .  A
N1292      N1294   1.315       .  A
N1292     Mn1299   2.203       .  S
N1293      C1302   1.356       .  A
N1294      N1295   1.320       .  A
N1294     Mn1298   2.201       .  S
N1295      C1302   1.353       .  A
N1296      N1297   1.319       .  A
N1296     Mn1299   2.201       .  S
N1297      C1301   1.350       .  A
Mn1298    Cl1300   2.548       .  S
Mn1299    Cl1300   2.547       .  S
C1301      C1532   1.470       .  S
C1302      C1675   1.488       .  S
N1303      N1304   1.322       .  A
N1303     Mn1332   2.206       .  S
N1304      C1311   1.356       .  A
N1305      N1306   1.321       .  A
N1305     Mn1321   2.203       .  S
N1307      N1308   1.320       .  A
N1307     Mn1332   2.199       .  S
N1308      C1312   1.353   1_655  A
N1309      N1310   1.317       .  A
N1309     Mn1321   2.194       .  S
C1311      C1582   1.483       .  S
C1312      C1502   1.482       .  S
N1313      N1899   1.315       .  A
N1313      N1314   1.320       .  A
N1313     Mn1343   2.198       .  S
N1314      C1322   1.353       .  A
N1315      N1316   1.321       .  A
N1315      N1897   1.316   1_545  A
N1315     Mn1321   2.207       .  S
N1316      C1903   1.352   1_545  A
N1317      N1895   1.316       .  A
N1317      N1318   1.322       .  A
N1317     Mn1343   2.207       .  S
N1318      C1323   1.353       .  A
N1319      N1893   1.314   1_545  A
N1319      N1320   1.318       .  A
N1319     Mn1321   2.196       .  S
N1320      C1902   1.353   1_545  A
C1322      C1485   1.478       .  S
C1322      N1900   1.353       .  A
C1323      C1635   1.473       .  S
C1323      N1896   1.352       .  A
N1324      N1325   1.319       .  A
N1324      N1910   1.315   1_545  A
N1324     Mn1332   2.194       .  S
N1325      C1913   1.353   1_545  A
N1326      N1908   1.316       .  A
N1326      N1327   1.326       .  A
N1326     Mn1344   2.218       .  S
N1327      C1334   1.357       .  A
N1328      N1906   1.316   1_545  A
N1328      N1329   1.317       .  A
N1328     Mn1332   2.201       .  S
N1329      C1914   1.353   1_545  A
N1330      N1904   1.315       .  A
N1330      N1331   1.319       .  A
N1330     Mn1344   2.196       .  S
N1331      C1333   1.353       .  A
Mn1332    Cl1925   2.544   1_545  S
C1333      C1495   1.480       .  S
C1333      N1905   1.353       .  A
C1334      C1625   1.489       .  S
C1334      N1909   1.353       .  A
N1335      N1336   1.320       .  A
N1335     Mn1343   2.204       .  S
N1337      N1338   1.322       .  A
N1337     Mn1344   2.216       .  S
N1338      C1347   1.357   1_655  A
N1339      N1340   1.320       .  A
N1339     Mn1343   2.200       .  S
N1341      N1342   1.318       .  A
N1341     Mn1344   2.196       .  S
N1342      C1346   1.351       .  A
Mn1344    Cl1345   2.549       .  S
Cl1345    Mn1912   2.544       .  S
C1346      C1592   1.485       .  S
C1347      C1512   1.493       .  S
N1348      N1349   1.322       .  A
N1348      N1934   1.317       .  A
N1348     Mn1377   2.208       .  S
N1349      C1356   1.354       .  A
N1350      N1932   1.316   1_545  A
N1350      N1351   1.321       .  A
N1350     Mn1366   2.212       .  S
N1351      C1937   1.356   1_545  A
N1352      N1930   1.316       .  A
N1352      N1353   1.320       .  A
N1352     Mn1377   2.206       .  S
N1353      C1357   1.353       .  A
N1354      N1928   1.317   1_545  A
N1354      N1355   1.318       .  A
N1354     Mn1366   2.195       .  S
N1355      C1936   1.351   1_545  A
C1356      C1715   1.479       .  S
C1356      N1935   1.351       .  A
C1357      C1462   1.490       .  S
C1357      N1931   1.356       .  A
N1358      N1359   1.320       .  A
N1358     Mn1388   2.206       .  S
N1359      C1367   1.355   1_655  A
N1360      N1361   1.323       .  A
N1360     Mn1366   2.223       .  S
N1362      N1363   1.319       .  A
N1362     Mn1388   2.192       .  S
N1363      C1368   1.349   1_655  A
N1364      N1365   1.321       .  A
N1364     Mn1366   2.199       .  S
C1367      C1442   1.488       .  S
C1368      C1432   1.472   1_455  S
N1369      N1370   1.323       .  A
N1369     Mn1377   2.213       .  S
N1371      N1372   1.319       .  A
N1371     Mn1389   2.194       .  S
N1372      C1379   1.352       .  A
N1373      N1374   1.322       .  A
N1373     Mn1377   2.218       .  S
N1375      N1376   1.320       .  A
N1375     Mn1389   2.201       .  S
N1376      C1378   1.353       .  A
C1378      C1452   1.486       .  S
C1379      C1422   1.488       .  S
N1380      N1381   1.321       .  A
N1380      N1966   1.316   1_545  A
N1380     Mn1388   2.205       .  S
N1381      C1971   1.352   1_545  A
N1382      N1383   1.318       .  A
N1382      N1964   1.314       .  A
N1382     Mn1389   2.189       .  S
N1383      C1392   1.353       .  A
N1384      N1962   1.314   1_545  A
N1384      N1385   1.317       .  A
N1384     Mn1388   2.191       .  S
N1385      C1972   1.352   1_545  A
N1386      N1960   1.316       .  A
N1386      N1387   1.322       .  A
N1386     Mn1389   2.206       .  S
N1387      C1391   1.353       .  A
Mn1388    Cl1970   2.540   1_645  S
Mn1389    Cl1390   2.550   1_655  S
Cl1390    Mn1968   2.540   1_455  S
C1391      C1705   1.474       .  S
C1391      N1961   1.352       .  A
C1392      C1472   1.473       .  S
C1392      N1965   1.352       .  A
C1393      C1394   1.415       .  A
C1393      C1398   1.405   1_655  A
C1393      C1515   1.486   1_655  S
C1394      C1395   1.407       .  A
C1394      C1455   1.489       .  S
C1395      C1396   1.406       .  A
C1396      C1397   1.413   1_655  A
C1396      C1445   1.487       .  S
C1397      C1398   1.407       .  A
C1397      C1505   1.489       .  S
C1398      H1399   1.084       .  S
C1401      C1402   1.407       .  A
C1401      C1406   1.400       .  A
C1401      C1492   1.477       .  S
C1402      C1403   1.401       .  A
C1402      C1475   1.475       .  S
C1403      C1404   1.400       .  A
C1403      H1408   1.085       .  S
C1404      C1405   1.413       .  A
C1404      C1465   1.479       .  S
C1405      C1406   1.404       .  A
C1405      C1482   1.480       .  S
C1406      H1407   1.085       .  S
C1409      C1410   1.543       .  S
C1409      C1415   1.542       .  S
C1409      C1435   1.542       .  S
C1410      H1417   1.085       .  S
C1410      C1411   1.370       .  D
C1411      C1412   1.544       .  S
C1411      C1535   1.488       .  S
C1412      C1416   1.537       .  S
C1412      H1418   1.111       .  S
C1413      H1419   1.086       .  S
C1413      C1414   1.366       .  D
C1414      C1522   1.493       .  S
C1415      H1420   1.082       .  S
C1415      C1416   1.361       .  D
C1416      C1425   1.476       .  S
C1421      C1426   1.397       .  A
C1421      H1428   1.083       .  S
C1422      C1423   1.420       .  A
C1423      C1424   1.403       .  A
C1423     Br1430   1.923       .  S
C1424      C1425   1.400       .  A
C1424      H1429   1.084       .  S
C1426     Br1427   1.918       .  S
C1431      C1432   1.399       .  A
C1431      C1436   1.404       .  A
C1431      H1438   1.084       .  S
C1433      C1434   1.396       .  A
C1433     Br1440   1.921       .  S
C1434      H1439   1.076       .  S
C1435      C1436   1.424       .  A
C1436     Br1437   1.922       .  S
C1441      C1442   1.406   1_655  A
C1441      C1446   1.396       .  A
C1441      H1448   1.083       .  S
C1443      C1444   1.404       .  A
C1443     Br1450   1.921       .  S
C1444      H1449   1.084       .  S
C1445      C1446   1.407       .  A
C1446     Br1447   1.916       .  S
C1451      C1452   1.405       .  A
C1451      C1456   1.398       .  A
C1451      H1458   1.083       .  S
C1453      C1454   1.403       .  A
C1453     Br1460   1.917       .  S
C1454      H1459   1.083       .  S
C1455      C1456   1.410       .  A
C1456     Br1457   1.918       .  S
C1461      C2042   1.409   1_545  A
C1461      C1466   1.398       .  A
C1461      H1468   1.083       .  S
C1462      C2041   1.409       .  A
C1462      C1463   1.420       .  A
C1463      C1464   1.400       .  A
C1463     Br1470   1.920       .  S
C1464      C1465   1.400       .  A
C1464      H1469   1.084       .  S
C1465      C2046   1.404       .  A
C1466      C2045   1.404   1_545  A
C1466     Br1467   1.917       .  S
C1471      C1472   1.405       .  A
C1471      C1476   1.394       .  A
C1471      H1478   1.083       .  S
C1472      C1473   1.412       .  A
C1473      C1474   1.395       .  A
C1473     Br2060   1.922       .  S
C1474      C1475   1.402       .  A
C1474      H1479   1.082       .  S
C1475      C1476   1.406       .  A
C1476     Br1477   1.920       .  S
Br1480     C2053   1.922       .  S
C1481      C1482   1.403       .  A
C1481      C1486   1.399       .  A
C1481      H1488   1.083       .  S
C1482      C1483   1.409       .  A
C1483      C1484   1.394       .  A
C1483     Br1490   1.919       .  S
C1484      C1485   1.404       .  A
C1484      H1489   1.083       .  S
C1485      C1486   1.413       .  A
C1486     Br1487   1.919       .  S
C1491      C1492   1.401       .  A
C1491      C1496   1.398       .  A
C1491      H1498   1.084       .  S
C1492      C1493   1.405       .  A
C1493      C1494   1.395       .  A
C1493     Br1500   1.918       .  S
C1494      C1495   1.406       .  A
C1494      H1499   1.083       .  S
C1495      C1496   1.414       .  A
C1496     Br2077   1.921       .  S
Br1497     C2076   1.921       .  S
C1501      C1506   1.398       .  A
C1501      H1508   1.083       .  S
C1502      C1503   1.412   1_455  A
C1503      C1504   1.401       .  A
C1503     Br1510   1.921       .  S
C1504      C1505   1.405   1_655  A
C1504      H1509   1.083       .  S
C1506     Br1507   1.920       .  S
C1511      C1512   1.408   1_655  A
C1511      C1516   1.401       .  A
C1511      H1518   1.083       .  S
C1513      C1514   1.401       .  A
C1513     Br1520   1.921       .  S
C1514      H1519   1.084       .  S
C1515      C1516   1.406   1_455  A
C1516     Br1517   1.915       .  S
C1521      C1522   1.404       .  A
C1521      C1526   1.405       .  A
C1521      H1528   1.083       .  S
C1522      C1523   1.413       .  A
C1523      C1524   1.398       .  A
C1523     Br1530   1.921       .  S
C1524      C1525   1.406       .  A
C1524      H1529   1.083       .  S
C1525      C1526   1.417       .  A
C1526     Br1527   1.918       .  S
C1531      C1532   1.398       .  A
C1531      C1536   1.397       .  A
C1531      H1538   1.084       .  S
C1532      C1533   1.406       .  A
C1533      C1534   1.405       .  A
C1533     Br1540   1.918       .  S
C1534      C1535   1.408       .  A
C1534      H1539   1.083       .  S
C1535      C1536   1.411       .  A
C1536     Br1537   1.913       .  S
C1541      C1542   1.407       .  A
C1541      C1546   1.400       .  A
C1541      H1548   1.083       .  S
C1542      C1543   1.416       .  A
C1543      C1544   1.401       .  A
C1543     Br1550   1.921       .  S
C1544      C1545   1.402       .  A
C1544      H1549   1.083       .  S
C1545      C1546   1.407       .  A
C1546     Br1547   1.920       .  S
C1551      C1552   1.399       .  A
C1551      C1556   1.399       .  A
C1551      H1558   1.084       .  S
C1552      C1553   1.404       .  A
C1553      C1554   1.401       .  A
C1553     Br1560   1.917       .  S
C1554      C1555   1.410       .  A
C1554      H1559   1.083       .  S
C1555      C1556   1.419       .  A
C1556     Br1557   1.920       .  S
C1561      C1562   1.400       .  A
C1561      C1566   1.400       .  A
C1561      H1568   1.084       .  S
C1562      C1563   1.406       .  A
C1563      C1564   1.398       .  A
C1563     Br1570   1.919       .  S
C1564      C1565   1.407       .  A
C1564      H1569   1.083       .  S
C1565      C1566   1.417       .  A
C1566     Br1567   1.921       .  S
C1571      C1572   1.405       .  A
C1571      C1576   1.398       .  A
C1571      H1578   1.083       .  S
C1572      C1573   1.414       .  A
C1573      C1574   1.402       .  A
C1573     Br1580   1.920       .  S
C1574      C1575   1.403       .  A
C1574      H1579   1.083       .  S
C1575      C1576   1.409       .  A
C1576     Br1577   1.921       .  S
C1581      C1582   1.404       .  A
C1581      C1586   1.402       .  A
C1581      H1588   1.083       .  S
C1583      C1584   1.394       .  A
C1583     Br1590   1.924       .  S
C1584      H1589   1.070       .  S
C1585      C1586   1.421       .  A
C1586     Br1587   1.925       .  S
C1591      C1596   1.396       .  A
C1591      H1598   1.083       .  S
C1592      C1593   1.419       .  A
C1593      C1594   1.399       .  A
C1593     Br1600   1.921       .  S
C1594      C1595   1.398       .  A
C1594      H1599   1.084       .  S
C1596     Br1597   1.914       .  S
C1601      C1602   1.397       .  A
C1601      C1606   1.398       .  A
C1601      H1608   1.084       .  S
C1602      C1603   1.409       .  A
C1603      C1604   1.403       .  A
C1603     Br1610   1.917       .  S
C1604      C1605   1.405       .  A
C1604      H1609   1.083       .  S
C1605      C1606   1.420       .  A
C1606     Br1607   1.925       .  S
C1611      C1612   1.404       .  A
C1611      C1616   1.405       .  A
C1611      H1618   1.084       .  S
C1612      C1613   1.406       .  A
C1613      C1614   1.399       .  A
C1613     Br1620   1.919       .  S
C1614      C1615   1.405       .  A
C1614      H1619   1.084       .  S
C1615      C1616   1.410       .  A
C1616     Br1617   1.916       .  S
C1621      C1622   1.405       .  A
C1621      C1626   1.409       .  A
C1621      H1628   1.084       .  S
C1622      C2203   1.409       .  A
C1623      C2202   1.409   1_545  A
C1623      C1624   1.393       .  A
C1623     Br1630   1.923       .  S
C1624      C2205   1.404   1_545  A
C1624      H1629   1.083       .  S
C1625      C2204   1.404       .  A
C1625      C1626   1.416       .  A
C1626     Br1627   1.916       .  S
C1631      C1632   1.409       .  A
C1631      C1636   1.400       .  A
C1631      H2218   1.083       .  S
C1632      C1633   1.416       .  A
C1633      C1634   1.402       .  A
C1633     Br1640   1.916       .  S
C1634      C1635   1.400       .  A
C1634      H1639   1.084       .  S
C1635      C1636   1.404       .  A
C1636     Br2217   1.917       .  S
Br1637     C2216   1.917   1_545  S
H1638      C2211   1.083       .  S
C1641      C1642   1.400       .  A
C1641      C1646   1.397       .  A
C1641      H1648   1.086       .  S
C1642      C1643   1.407       .  A
C1643      C1644   1.402       .  A
C1643     Br1650   1.921       .  S
C1644      C1645   1.415       .  A
C1644      H1649   1.086       .  S
C1645      C1646   1.422       .  A
C1646     Br1647   1.922       .  S
C1651      C1652   1.398       .  A
C1651      C1656   1.401       .  A
C1651      H1658   1.084       .  S
C1652      C1653   1.405       .  A
C1653      C1654   1.398       .  A
C1653     Br1660   1.917       .  S
C1654      C1655   1.407       .  A
C1654      H1659   1.083       .  S
C1655      C1656   1.420       .  A
C1656     Br1657   1.919       .  S
C1661      C1662   1.403       .  A
C1661      C1666   1.395       .  A
C1661      H1668   1.081       .  S
C1662      C1663   1.409       .  A
C1663      C1664   1.395       .  A
C1663     Br1670   1.920       .  S
C1664      C1665   1.403       .  A
C1664      H1669   1.084       .  S
C1665      C1666   1.407       .  A
C1666     Br1667   1.919       .  S
C1671      C1672   1.400       .  A
C1671      C1676   1.401       .  A
C1671      H1678   1.084       .  S
C1672      C1673   1.403       .  A
C1673      C1674   1.396       .  A
C1673     Br1680   1.917       .  S
C1674      C1675   1.408       .  A
C1674      H1679   1.083       .  S
C1675      C1676   1.419       .  A
C1676     Br1677   1.922       .  S
C1681      C1682   1.407       .  A
C1681      C1686   1.393       .  A
C1681      H1688   1.083       .  S
C1682      C1683   1.418       .  A
C1683      C1684   1.402       .  A
C1683     Br1690   1.922       .  S
C1684      C1685   1.401       .  A
C1684      H1689   1.084       .  S
C1685      C1686   1.403       .  A
C1686     Br1687   1.919       .  S
C1691      C1692   1.402       .  A
C1691      C1696   1.399       .  A
C1691      H1698   1.082       .  S
C1692      C1693   1.409       .  A
C1693      C1694   1.395       .  A
C1693     Br1700   1.922       .  S
C1694      C1695   1.403       .  A
C1694      H1699   1.083       .  S
C1695      C1696   1.413       .  A
C1696     Br1697   1.921       .  S
C1701      C1702   1.407       .  A
C1701      C1706   1.402       .  A
C1701      H1708   1.083       .  S
C1702      C2283   1.419       .  A
C1703      C2282   1.419       .  A
C1703      C1704   1.401       .  A
C1703     Br1710   1.917       .  S
C1704      C2285   1.398   1_545  A
C1704      H1709   1.084       .  S
C1705      C2284   1.398       .  A
C1705      C1706   1.406       .  A
C1706     Br1707   1.918       .  S
C1711      C1712   1.402       .  A
C1711      C1716   1.402       .  A
C1711      H1718   1.084       .  S
C1712      C2293   1.408       .  A
C1713      C2292   1.408       .  A
C1713      C1714   1.395       .  A
C1713     Br1720   1.922       .  S
C1714      C2295   1.405   1_545  A
C1714      H1719   1.083       .  S
C1715      C2294   1.405       .  A
C1715      C1716   1.412       .  A
C1716     Br1717   1.919       .  S
C1721      C1722   1.415       .  A
C1721      C1726   1.397       .  A
C1721      H1728   1.075       .  S
C1722      C1723   1.421       .  A
C1723      C1724   1.396       .  A
C1723     Br1730   1.922       .  S
C1724      C1725   1.398       .  A
C1724      H1729   1.084       .  S
C1725      C1726   1.404       .  A
C1726     Br1727   1.922       .  S
C1731      C1732   1.401       .  A
C1731      C1736   1.401       .  A
C1731      H1738   1.084       .  S
C1732      C1733   1.404       .  A
C1733      C1734   1.399       .  A
C1733     Br1740   1.916       .  S
C1734      C1735   1.409       .  A
C1734      H1739   1.083       .  S
C1735      C1736   1.418       .  A
C1736     Br1737   1.920       .  S
C1741      C1742   1.540       .  S
C1741      C1747   1.535       .  S
C1741      C1745   1.539       .  S
C1741      C2302   1.536       .  S
C1742      H1749   1.081       .  S
C1743      C1744   1.539   1_545  S
C1743      C2292   1.475       .  S
C1744      C1748   1.537       .  S
C1744      C1746   1.547   1_565  S
C1744      H1750   1.110       .  S
C1745      H1751   1.085       .  S
C1746      C2282   1.496       .  S
C1748      C2312   1.478       .  S
C1753      C1754   1.411   1_556  A
C1753      C2272   1.480       .  S
C1754      C2252   1.477       .  S
C1755      C1756   1.403       .  A
C1755      H1760   1.085       .  S
C1756      C1757   1.409   1_554  A
C1756      C2242   1.478       .  S
C1757      C1758   1.399       .  A
C1757      C2265   1.476       .  S
C1758      H1759   1.085       .  S
C1761      C1762   1.544       .  S
C1761      C1767   1.533       .  S
C1761      C1765   1.540       .  S
C1761      C2225   1.543       .  S
C1762      H1769   1.087       .  S
C1763      C1764   1.541   1_545  S
C1763      C2202   1.487   1_545  S
C1764      C1768   1.539       .  S
C1764      C1766   1.543   1_565  S
C1764      H1770   1.109       .  S
C1765      H1771   1.086       .  S
C1766      C2212   1.493   1_545  S
C1768      C2232   1.475       .  S
C1773      C1774   1.545       .  S
C1773      C1779   1.534       .  S
C1774      H1781   1.077       .  S
C1774      C1775   1.365       .  D
C1775      C1776   1.545       .  S
C1775      C2185   1.493       .  S
C1776      C1780   1.535       .  S
C1776      H1782   1.111       .  S
C1777      H1783   1.086       .  S
C1777      C1778   1.367       .  D
C1778      C2192   1.480       .  S
C1779      H1784   1.087       .  S
C1779      C1780   1.360       .  D
C1785      C1786   1.413   1_556  A
C1785      C2155   1.486       .  S
C1786      C2132   1.480       .  S
C1787      C1788   1.404       .  A
C1787      H1792   1.085       .  S
C1788      C1789   1.411   1_554  A
C1788      C2125   1.484       .  S
C1789      C1790   1.404       .  A
C1789      C2142   1.480       .  S
C1790      H1791   1.085       .  S
N1793      N1794   1.322       .  A
N1793      N1799   1.315       .  A
N1793     Mn1822   2.205       .  S
N1794      C1801   1.354       .  A
N1795      N1797   1.316       .  A
N1795      N1796   1.320       .  A
N1795     Mn1811   2.202       .  S
N1796      C1802   1.353       .  A
N1797      N1798   1.321       .  A
N1797     Mn1822   2.213       .  S
N1798      C1802   1.356       .  A
N1799      N1800   1.321       .  A
N1799     Mn1811   2.206       .  S
N1800      C1801   1.354       .  A
C1801      C2152   1.485       .  S
C1802      C2235   1.490       .  S
N1803      N1809   1.317       .  A
N1803      N1804   1.319       .  A
N1803     Mn1833   2.198       .  S
N1804      C1812   1.351       .  A
N1805      N1806   1.319       .  A
N1805      N1807   1.315       .  A
N1805     Mn1811   2.195       .  S
N1806      C1813   1.351       .  A
N1807      N1808   1.320       .  A
N1807     Mn1833   2.206       .  S
N1808      C1813   1.355       .  A
N1809      N1810   1.325       .  A
N1809     Mn1811   2.222       .  S
N1810      C1812   1.356       .  A
Mn1811    Cl1835   2.547       .  S
C1812      C2195   1.481       .  S
C1813      C2275   1.478       .  S
N1814      N1815   1.323       .  A
N1814      N1820   1.317       .  A
N1814     Mn1822   2.209       .  S
N1815      C1823   1.353       .  A
N1816      N1818   1.315       .  A
N1816      N1817   1.321       .  A
N1816     Mn1834   2.200       .  S
N1817      C1824   1.353       .  A
N1818      N1819   1.318       .  A
N1818     Mn1822   2.202       .  S
N1819      C1824   1.354       .  A
N1820      N1821   1.321       .  A
N1820     Mn1834   2.208       .  S
N1821      C1823   1.352       .  A
Mn1822    Cl1835   2.550       .  S
C1823      C2182   1.474       .  S
C1824      C2262   1.485       .  S
N1825      N1826   1.320       .  A
N1825      N1831   1.314       .  A
N1825     Mn1833   2.202       .  S
N1826      C1836   1.353       .  A
N1827      N1828   1.320       .  A
N1827      N1829   1.316       .  A
N1827     Mn1834   2.204       .  S
N1828      C1837   1.353       .  A
N1829      N1830   1.323       .  A
N1829     Mn1833   2.214       .  S
N1830      C1837   1.355       .  A
N1831      N1832   1.321       .  A
N1831     Mn1834   2.201       .  S
N1832      C1836   1.355       .  A
Mn1833    Cl1835   2.549       .  S
Mn1834    Cl1835   2.547       .  S
C1836      C2145   1.487       .  S
C1837      C2222   1.483       .  S
N1838      N1839   1.320       .  A
N1838      N1844   1.316       .  A
N1838     Mn1867   2.208       .  S
N1839      C1846   1.355       .  A
N1840      N1842   1.315       .  A
N1840      N1841   1.318       .  A
N1840     Mn1856   2.198       .  S
N1841      C1847   1.352       .  A
N1842      N1843   1.318       .  A
N1842     Mn1867   2.185       .  S
N1843      C1847   1.351       .  A
N1844      N1845   1.323       .  A
N1844     Mn1856   2.213       .  S
N1845      C1846   1.355       .  A
C1846      C2105   1.494       .  S
C1847      C2245   1.468       .  S
N1848      N1854   1.314       .  A
N1848      N1849   1.321       .  A
N1848     Mn1878   2.205       .  S
N1849      C1857   1.356       .  A
N1850      N1851   1.321       .  A
N1850      N1852   1.315       .  A
N1850     Mn1856   2.208       .  S
N1851      C1858   1.354       .  A
N1852      N1853   1.320       .  A
N1852     Mn1878   2.207       .  S
N1853      C1858   1.355       .  A
N1854      N1855   1.321       .  A
N1854     Mn1856   2.208       .  S
N1855      C1857   1.354       .  A
Mn1856    Cl1880   2.548       .  S
C1857      C2135   1.492       .  S
C1858      C2315   1.490       .  S
N1859      N1860   1.320       .  A
N1859      N1865   1.315       .  A
N1859     Mn1867   2.205       .  S
N1860      C1868   1.353       .  A
N1861      N1863   1.315       .  A
N1861      N1862   1.319       .  A
N1861     Mn1879   2.197       .  S
N1862      C1869   1.352       .  A
N1863      N1864   1.319       .  A
N1863     Mn1867   2.193       .  S
N1864      C1869   1.352       .  A
N1865      N1866   1.322       .  A
N1865     Mn1879   2.206       .  S
N1866      C1868   1.356       .  A
Mn1867    Cl1880   2.542       .  S
C1868      C2122   1.488       .  S
C1869      C2305   1.471       .  S
N1870      N1871   1.323       .  A
N1870      N1876   1.316       .  A
N1870     Mn1878   2.210       .  S
N1871      C1881   1.354       .  A
N1872      N1873   1.320       .  A
N1872      N1874   1.315       .  A
N1872     Mn1879   2.203       .  S
N1873      C1882   1.356       .  A
N1874      N1875   1.320       .  A
N1874     Mn1878   2.202       .  S
N1875      C1882   1.353       .  A
N1876      N1877   1.319       .  A
N1876     Mn1879   2.201       .  S
N1877      C1881   1.350       .  A
Mn1878    Cl1880   2.548       .  S
Mn1879    Cl1880   2.547       .  S
C1881      C2112   1.470       .  S
C1882      C2255   1.488       .  S
N1883      N1884   1.322       .  A
N1883     Mn1912   2.206       .  S
N1884      C1891   1.356       .  A
N1885      N1886   1.321       .  A
N1885     Mn1901   2.203       .  S
N1887      N1888   1.320       .  A
N1887     Mn1912   2.199       .  S
N1888      C1892   1.353   1_655  A
N1889      N1890   1.317       .  A
N1889     Mn1901   2.194       .  S
C1891      C2162   1.484       .  S
C1892      C2082   1.482       .  S
N1893      N1894   1.320       .  A
N1893     Mn1923   2.197       .  S
N1894      C1902   1.353       .  A
N1895      N1896   1.321       .  A
N1895     Mn1901   2.208       .  S
N1897      N1898   1.322       .  A
N1897     Mn1923   2.207       .  S
N1898      C1903   1.353       .  A
N1899      N1900   1.318       .  A
N1899     Mn1901   2.196       .  S
C1902      C2065   1.477       .  S
C1903      C2215   1.473       .  S
N1904      N1905   1.319       .  A
N1904     Mn1912   2.194       .  S
N1906      N1907   1.326       .  A
N1906     Mn1924   2.218       .  S
N1907      C1914   1.357       .  A
N1908      N1909   1.317       .  A
N1908     Mn1912   2.201       .  S
N1910      N1911   1.319       .  A
N1910     Mn1924   2.197       .  S
N1911      C1913   1.353       .  A
C1913      C2075   1.480       .  S
C1914      C2205   1.489       .  S
N1915      N1916   1.320       .  A
N1915     Mn1923   2.204       .  S
N1917      N1918   1.322       .  A
N1917     Mn1924   2.216       .  S
N1918      C1927   1.357   1_655  A
N1919      N1920   1.320       .  A
N1919     Mn1923   2.200       .  S
N1921      N1922   1.318       .  A
N1921     Mn1924   2.196       .  S
N1922      C1926   1.351       .  A
Mn1924    Cl1925   2.549       .  S
C1926      C2172   1.485       .  S
C1927      C2092   1.493       .  S
N1928      N1929   1.322       .  A
N1928     Mn1957   2.208       .  S
N1929      C1936   1.354       .  A
N1930      N1931   1.321       .  A
N1930     Mn1946   2.211       .  S
N1932      N1933   1.320       .  A
N1932     Mn1957   2.206       .  S
N1933      C1937   1.353       .  A
N1934      N1935   1.318       .  A
N1934     Mn1946   2.196       .  S
C1936      C2295   1.479       .  S
C1937      C2042   1.490       .  S
N1938      N1939   1.320       .  A
N1938     Mn1968   2.207       .  S
N1939      C1947   1.355   1_655  A
N1940      N1941   1.323       .  A
N1940     Mn1946   2.223       .  S
N1942      N1943   1.319       .  A
N1942     Mn1968   2.192       .  S
N1943      C1948   1.349   1_655  A
N1944      N1945   1.321       .  A
N1944     Mn1946   2.200       .  S
C1947      C2022   1.488       .  S
C1948      C2012   1.472   1_455  S
N1949      N1950   1.323       .  A
N1949     Mn1957   2.212       .  S
N1951      N1952   1.319       .  A
N1951     Mn1969   2.194       .  S
N1952      C1959   1.352       .  A
N1953      N1954   1.322       .  A
N1953     Mn1957   2.217       .  S
N1955      N1956   1.320       .  A
N1955     Mn1969   2.200       .  S
N1956      C1958   1.353       .  A
C1958      C2032   1.486       .  S
C1959      C2002   1.488       .  S
N1960      N1961   1.321       .  A
N1960     Mn1968   2.206       .  S
N1962      N1963   1.318       .  A
N1962     Mn1969   2.189       .  S
N1963      C1972   1.353       .  A
N1964      N1965   1.317       .  A
N1964     Mn1968   2.191       .  S
N1966      N1967   1.322       .  A
N1966     Mn1969   2.206       .  S
N1967      C1971   1.353       .  A
Mn1969    Cl1970   2.550   1_655  S
C1971      C2285   1.473       .  S
C1972      C2052   1.473       .  S
C1973      C1974   1.415       .  A
C1973      C1978   1.405   1_655  A
C1973      C2095   1.486   1_655  S
C1974      C1975   1.407       .  A
C1974      C2035   1.489       .  S
C1975      C1976   1.406       .  A
C1976      C1977   1.413   1_655  A
C1976      C2025   1.486       .  S
C1977      C1978   1.406       .  A
C1977      C2085   1.489       .  S
C1978      H1979   1.084       .  S
C1981      C1982   1.407       .  A
C1981      C1986   1.399       .  A
C1981      C2072   1.477       .  S
C1982      C1983   1.401       .  A
C1982      C2055   1.475       .  S
C1983      C1984   1.399       .  A
C1983      H1988   1.085       .  S
C1984      C1985   1.413       .  A
C1984      C2045   1.479       .  S
C1985      C1986   1.404       .  A
C1985      C2062   1.480       .  S
C1986      H1987   1.085       .  S
C1989      C1990   1.543       .  S
C1989      C1995   1.542       .  S
C1989      C2015   1.542       .  S
C1990      H1997   1.085       .  S
C1990      C1991   1.370       .  D
C1991      C1992   1.544       .  S
C1991      C2115   1.488       .  S
C1992      C1996   1.537       .  S
C1992      H1998   1.111       .  S
C1993      H1999   1.086       .  S
C1993      C1994   1.366       .  D
C1994      C2102   1.493       .  S
C1995      H2000   1.082       .  S
C1995      C1996   1.361       .  D
C1996      C2005   1.476       .  S
C2001      C2006   1.397       .  A
C2001      H2008   1.083       .  S
C2002      C2003   1.420       .  A
C2003      C2004   1.403       .  A
C2003     Br2010   1.923       .  S
C2004      C2005   1.400       .  A
C2004      H2009   1.084       .  S
C2006     Br2007   1.918       .  S
C2011      C2012   1.399       .  A
C2011      C2016   1.404       .  A
C2011      H2018   1.084       .  S
C2013      C2014   1.396       .  A
C2013     Br2020   1.921       .  S
C2014      H2019   1.076       .  S
C2015      C2016   1.424       .  A
C2016     Br2017   1.922       .  S
C2021      C2022   1.406   1_655  A
C2021      C2026   1.396       .  A
C2021      H2028   1.083       .  S
C2023      C2024   1.404       .  A
C2023     Br2030   1.921       .  S
C2024      H2029   1.084       .  S
C2025      C2026   1.407       .  A
C2026     Br2027   1.916       .  S
C2031      C2032   1.405       .  A
C2031      C2036   1.398       .  A
C2031      H2038   1.083       .  S
C2033      C2034   1.403       .  A
C2033     Br2040   1.917       .  S
C2034      H2039   1.083       .  S
C2035      C2036   1.410       .  A
C2036     Br2037   1.918       .  S
C2041      C2046   1.398       .  A
C2041      H2048   1.083       .  S
C2042      C2043   1.420       .  A
C2043      C2044   1.400       .  A
C2043     Br2050   1.920       .  S
C2044      C2045   1.400       .  A
C2044      H2049   1.084       .  S
C2046     Br2047   1.917       .  S
C2051      C2052   1.405       .  A
C2051      C2056   1.394       .  A
C2051      H2058   1.083       .  S
C2052      C2053   1.412   1_565  A
C2053      C2054   1.395       .  A
C2054      C2055   1.402   1_545  A
C2054      H2059   1.082       .  S
C2055      C2056   1.406       .  A
C2056     Br2057   1.920       .  S
C2061      C2062   1.403       .  A
C2061      C2066   1.399       .  A
C2061      H2068   1.083       .  S
C2062      C2063   1.409   1_565  A
C2063      C2064   1.394       .  A
C2063     Br2070   1.919       .  S
C2064      C2065   1.404   1_545  A
C2064      H2069   1.083       .  S
C2065      C2066   1.412       .  A
C2066     Br2067   1.919       .  S
C2071      C2072   1.401       .  A
C2071      C2076   1.398       .  A
C2071      H2078   1.084       .  S
C2072      C2073   1.405   1_565  A
C2073      C2074   1.396       .  A
C2073     Br2080   1.918       .  S
C2074      C2075   1.406   1_545  A
C2074      H2079   1.083       .  S
C2075      C2076   1.414       .  A
C2081      C2086   1.398       .  A
C2081      H2088   1.083       .  S
C2082      C2083   1.412   1_455  A
C2083      C2084   1.401       .  A
C2083     Br2090   1.921       .  S
C2084      C2085   1.405   1_655  A
C2084      H2089   1.083       .  S
C2086     Br2087   1.920       .  S
C2091      C2092   1.408   1_655  A
C2091      C2096   1.401       .  A
C2091      H2098   1.083       .  S
C2093      C2094   1.401       .  A
C2093     Br2100   1.921       .  S
C2094      H2099   1.084       .  S
C2095      C2096   1.406   1_455  A
C2096     Br2097   1.915       .  S
C2101      C2102   1.404       .  A
C2101      C2106   1.405       .  A
C2101      H2108   1.083       .  S
C2102      C2103   1.412       .  A
C2103      C2104   1.398       .  A
C2103     Br2110   1.921       .  S
C2104      C2105   1.406       .  A
C2104      H2109   1.083       .  S
C2105      C2106   1.417       .  A
C2106     Br2107   1.918       .  S
C2111      C2112   1.398       .  A
C2111      C2116   1.397       .  A
C2111      H2118   1.084       .  S
C2112      C2113   1.406       .  A
C2113      C2114   1.405       .  A
C2113     Br2120   1.918       .  S
C2114      C2115   1.408       .  A
C2114      H2119   1.083       .  S
C2115      C2116   1.411       .  A
C2116     Br2117   1.913       .  S
C2121      C2122   1.407       .  A
C2121      C2126   1.400       .  A
C2121      H2128   1.083       .  S
C2122      C2123   1.416       .  A
C2123      C2124   1.401       .  A
C2123     Br2130   1.921       .  S
C2124      C2125   1.402       .  A
C2124      H2129   1.083       .  S
C2125      C2126   1.407       .  A
C2126     Br2127   1.920       .  S
C2131      C2132   1.399       .  A
C2131      C2136   1.399       .  A
C2131      H2138   1.084       .  S
C2132      C2133   1.404       .  A
C2133      C2134   1.401       .  A
C2133     Br2140   1.917       .  S
C2134      C2135   1.410       .  A
C2134      H2139   1.083       .  S
C2135      C2136   1.419       .  A
C2136     Br2137   1.920       .  S
C2141      C2142   1.400       .  A
C2141      C2146   1.400       .  A
C2141      H2148   1.084       .  S
C2142      C2143   1.406       .  A
C2143      C2144   1.398       .  A
C2143     Br2150   1.919       .  S
C2144      C2145   1.408       .  A
C2144      H2149   1.083       .  S
C2145      C2146   1.417       .  A
C2146     Br2147   1.921       .  S
C2151      C2152   1.406       .  A
C2151      C2156   1.399       .  A
C2151      H2158   1.083       .  S
C2152      C2153   1.414       .  A
C2153      C2154   1.402       .  A
C2153     Br2160   1.920       .  S
C2154      C2155   1.403       .  A
C2154      H2159   1.083       .  S
C2155      C2156   1.409       .  A
C2156     Br2157   1.921       .  S
C2161      C2162   1.404       .  A
C2161      C2166   1.402       .  A
C2161      H2168   1.083       .  S
C2163      C2164   1.394       .  A
C2163     Br2170   1.924       .  S
C2164      H2169   1.070       .  S
C2165      C2166   1.421       .  A
C2166     Br2167   1.925       .  S
C2171      C2176   1.396       .  A
C2171      H2178   1.083       .  S
C2172      C2173   1.419       .  A
C2173      C2174   1.399       .  A
C2173     Br2180   1.921       .  S
C2174      C2175   1.399       .  A
C2174      H2179   1.084       .  S
C2176     Br2177   1.914       .  S
C2181      C2182   1.397       .  A
C2181      C2186   1.398       .  A
C2181      H2188   1.084       .  S
C2182      C2183   1.409       .  A
C2183      C2184   1.403       .  A
C2183     Br2190   1.917       .  S
C2184      C2185   1.405       .  A
C2184      H2189   1.083       .  S
C2185      C2186   1.420       .  A
C2186     Br2187   1.925       .  S
C2191      C2192   1.404       .  A
C2191      C2196   1.405       .  A
C2191      H2198   1.084       .  S
C2192      C2193   1.406       .  A
C2193      C2194   1.399       .  A
C2193     Br2200   1.919       .  S
C2194      C2195   1.405       .  A
C2194      H2199   1.084       .  S
C2195      C2196   1.410       .  A
C2196     Br2197   1.916       .  S
C2201      C2202   1.405       .  A
C2201      C2206   1.409       .  A
C2201      H2208   1.084       .  S
C2203      C2204   1.393       .  A
C2203     Br2210   1.923       .  S
C2204      H2209   1.083       .  S
C2205      C2206   1.416       .  A
C2206     Br2207   1.916       .  S
C2211      C2212   1.408   1_545  A
C2211      C2216   1.400   1_545  A
C2212      C2213   1.416       .  A
C2213      C2214   1.402       .  A
C2213     Br2220   1.916       .  S
C2214      C2215   1.400       .  A
C2214      H2219   1.084       .  S
C2215      C2216   1.404       .  A
C2221      C2222   1.400       .  A
C2221      C2226   1.397       .  A
C2221      H2228   1.086       .  S
C2222      C2223   1.407       .  A
C2223      C2224   1.402       .  A
C2223     Br2230   1.921       .  S
C2224      C2225   1.415       .  A
C2224      H2229   1.086       .  S
C2225      C2226   1.422       .  A
C2226     Br2227   1.922       .  S
C2231      C2232   1.398       .  A
C2231      C2236   1.401       .  A
C2231      H2238   1.084       .  S
C2232      C2233   1.405       .  A
C2233      C2234   1.398       .  A
C2233     Br2240   1.917       .  S
C2234      C2235   1.407       .  A
C2234      H2239   1.083       .  S
C2235      C2236   1.419       .  A
C2236     Br2237   1.919       .  S
C2241      C2242   1.403       .  A
C2241      C2246   1.395       .  A
C2241      H2248   1.082       .  S
C2242      C2243   1.409       .  A
C2243      C2244   1.395       .  A
C2243     Br2250   1.920       .  S
C2244      C2245   1.403       .  A
C2244      H2249   1.084       .  S
C2245      C2246   1.407       .  A
C2246     Br2247   1.919       .  S
C2251      C2252   1.400       .  A
C2251      C2256   1.401       .  A
C2251      H2258   1.084       .  S
C2252      C2253   1.403       .  A
C2253      C2254   1.396       .  A
C2253     Br2260   1.917       .  S
C2254      C2255   1.408       .  A
C2254      H2259   1.083       .  S
C2255      C2256   1.419       .  A
C2256     Br2257   1.922       .  S
C2261      C2262   1.406       .  A
C2261      C2266   1.393       .  A
C2261      H2268   1.083       .  S
C2262      C2263   1.418       .  A
C2263      C2264   1.402       .  A
C2263     Br2270   1.922       .  S
C2264      C2265   1.401       .  A
C2264      H2269   1.084       .  S
C2265      C2266   1.403       .  A
C2266     Br2267   1.919       .  S
C2271      C2272   1.402       .  A
C2271      C2276   1.399       .  A
C2271      H2278   1.082       .  S
C2272      C2273   1.409       .  A
C2273      C2274   1.395       .  A
C2273     Br2280   1.922       .  S
C2274      C2275   1.403       .  A
C2274      H2279   1.083       .  S
C2275      C2276   1.413       .  A
C2276     Br2277   1.921       .  S
C2281      C2282   1.407   1_565  A
C2281      C2286   1.402       .  A
C2281      H2288   1.083       .  S
C2283      C2284   1.401       .  A
C2283     Br2290   1.917       .  S
C2284      H2289   1.084       .  S
C2285      C2286   1.406       .  A
C2286     Br2287   1.918       .  S
C2291      C2292   1.402   1_565  A
C2291      C2296   1.402       .  A
C2291      H2298   1.084       .  S
C2293      C2294   1.395       .  A
C2293     Br2300   1.922       .  S
C2294      H2299   1.083       .  S
C2295      C2296   1.412       .  A
C2296     Br2297   1.919       .  S
C2301      C2302   1.415       .  A
C2301      C2306   1.397       .  A
C2301      H2308   1.075       .  S
C2302      C2303   1.421       .  A
C2303      C2304   1.396       .  A
C2303     Br2310   1.922       .  S
C2304      C2305   1.398       .  A
C2304      H2309   1.084       .  S
C2305      C2306   1.404       .  A
C2306     Br2307   1.923       .  S
C2311      C2312   1.401       .  A
C2311      C2316   1.401       .  A
C2311      H2318   1.084       .  S
C2312      C2313   1.404       .  A
C2313      C2314   1.399       .  A
C2313     Br2320   1.916       .  S
C2314      C2315   1.409       .  A
C2314      H2319   1.083       .  S
C2315      C2316   1.418       .  A
C2316     Br2317   1.920       .  S
