geometry optimzed in LAMMPS
_audit_creation_date              2020-11-30 
_audit_creation_method            'lammps2cif' 
_symmetry_space_group_name_H-M    'P1' 
_symmetry_Int_Tables_number       1 
_symmetry_cell_setting            triclinic 
loop_ 
_symmetry_equiv_pos_as_xyz 
  x,y,z 
_cell_length_a                    48.140570449500004 
_cell_length_b                    48.19270621997888 
_cell_length_c                    25.05737513037405 
_cell_angle_alpha                 90.13385093056462 
_cell_angle_beta                  90.03246876269733 
_cell_angle_gamma                 131.87280410372327 
loop_ 
_atom_site_label 
_atom_site_type_symbol 
_atom_site_fract_x 
_atom_site_fract_y 
_atom_site_fract_z 
_atom_site_charge 
C1          C  0.34468755  0.81830828  0.45513706     0.02740
C2          C  0.35539468  0.85341952  0.45378810    -0.13410
C3          C  0.36416630  0.87418806  0.00090158     0.00240
C4          C  0.36167190  0.85788759  0.04979445    -0.11930
C5          C  0.34929287  0.82195755  0.05200051     0.02730
C6          C  0.34062243  0.80223076  0.50433891    -0.11350
H7          H  0.35591966  0.86333482  0.41503384     0.08330
H8          H  0.36906332  0.87236452  0.08723799     0.05860
H9          H  0.33041134  0.77427151  0.50546365     0.05710
C10         C  0.26152757  0.37376176  0.04879038     0.02740
C11         C  0.25639619  0.38453532  0.00056277    -0.13410
C12         C  0.26630935  0.37856263  0.45218161     0.00240
C13         C  0.28315606  0.36355309  0.45257951    -0.11930
C14         C  0.28752659  0.35121992  0.00029545     0.02730
C15         C  0.27572534  0.35612298  0.04821904    -0.11350
H16         H  0.24507293  0.39783606  0.00072145     0.08330
H17         H  0.29307812  0.36227180  0.41489690     0.05860
H18         H  0.27738144  0.34665207  0.08603002     0.05710
C19         C  0.31045605  0.74222015  0.25226058     0.00180
C20         C  0.29505709  0.70591319  0.24775776     0.00180
O21         O  0.19636899  0.58015172  0.42924636    -0.85740
O22         O  0.12522948  0.52306684  0.46396545    -0.82780
C23         C  0.11592323  0.49854491  0.43048041     0.97730
O24         O  0.12917756  0.48332949  0.43456468    -0.82820
O25         O  0.17846058  0.47455991  0.45806426    -0.85460
C26         C  0.20468941  0.49578016  0.42515793     1.02250
O27         O  0.22707066  0.53056408  0.43130037    -0.78220
O28         O  0.25040590  0.59884649  0.45292378    -0.78410
C29         C  0.23070518  0.59989679  0.42089400     1.02200
O30         O  0.22066207  0.60503504  0.03556146    -0.85730
O31         O  0.15122350  0.54235901  0.07077006    -0.82800
C32         C  0.12221841  0.50859402  0.07732252     0.97750
O33         O  0.11590790  0.48383532  0.04697528    -0.82820
O34         O  0.17028357  0.48153733  0.06918842    -0.85430
C35         C  0.20236547  0.49238549  0.07305190     1.02220
O36         O  0.22805175  0.51700003  0.04174532    -0.78250
O37         O  0.24534051  0.58330344  0.06599311    -0.78400
C38         C  0.24142115  0.60665562  0.06876158     1.02180
Cr39       Cr  0.17438070  0.56068086  0.50003727     1.93740
Cr40       Cr  0.15109888  0.48444138  0.50218634     1.93210
Cr41       Cr  0.23427052  0.55577897  0.49844964     1.39100
O42         O  0.18665558  0.53352271  0.50053858    -1.23480
C43         C  0.24123557  0.41776778  0.25046108     0.00180
C44         C  0.22507221  0.43273034  0.24856127     0.00180
C45         C  0.02530269  0.47419171  0.25213787     0.00180
C46         C  0.98866800  0.45794555  0.25090721     0.00180
C47         C  0.92085236  0.44407571  0.04886278     0.02740
C48         C  0.93701870  0.44720566  0.50013729    -0.13410
C49         C  0.91766123  0.43858947  0.45211071     0.00240
C50         C  0.88141909  0.42533441  0.45347988    -0.11930
C51         C  0.86494482  0.42352369  0.50158923     0.02730
C52         C  0.88565179  0.43341366  0.04923813    -0.11350
H53         H  0.96437678  0.45587919  0.49967352     0.08330
H54         H  0.86646001  0.41607098  0.41611437     0.05860
H55         H  0.87498952  0.43285292  0.08744431     0.05710
C56         C  0.77275180  0.39418719  0.45266027     0.02740
C57         C  0.80937274  0.40834125  0.45371982    -0.13410
C58         C  0.82642538  0.41076161  0.50170453     0.00240
C59         C  0.80605575  0.40072952  0.04945776    -0.11930
C60         C  0.77043246  0.38912346  0.04946471     0.02730
C61         C  0.75365106  0.38541794  0.50086801    -0.11350
H62         H  0.82403650  0.41754336  0.41621709     0.08330
H63         H  0.81710309  0.40154334  0.08746350     0.05860
H64         H  0.72596024  0.37597834  0.50060958     0.05710
C65         C  0.32694586  0.30779432  0.45165770     0.02740
C66         C  0.30929722  0.32200269  0.45221162    -0.13410
C67         C  0.30483629  0.33419995  0.00011087     0.00240
C68         C  0.31760949  0.33030932  0.04779190    -0.11930
C69         C  0.33340062  0.31425237  0.04798403     0.02730
C70         C  0.33850618  0.30349392  0.49976513    -0.11350
H71         H  0.29922403  0.32307693  0.41451222     0.08330
H72         H  0.31612632  0.33998811  0.08560009     0.05860
H73         H  0.35160475  0.29195998  0.49967364     0.05710
C74         C  0.69987808  0.37149642  0.25094218     0.00180
C75         C  0.66300199  0.35485049  0.25246357     0.00180
C76         C  0.36597303  0.28239558  0.24982383     0.00180
C77         C  0.38403266  0.26941862  0.25052999     0.00180
O78         O  0.49780037  0.19899918  0.43004110    -0.85740
O79         O  0.56007975  0.26947674  0.46388263    -0.82780
C80         C  0.56047523  0.28886240  0.42981039     0.97730
O81         O  0.53647982  0.29198679  0.43255855    -0.82820
O82         O  0.47058124  0.27518491  0.45814015    -0.85460
C83         C  0.44531799  0.24895125  0.42792636     1.02250
O84         O  0.43468184  0.21705769  0.43263003    -0.78220
O85         O  0.43877400  0.16401346  0.45278060    -0.78410
C86         C  0.46379015  0.17069283  0.42263623     1.02200
O87         O  0.48010572  0.17443259  0.03664584    -0.85730
O88         O  0.53683731  0.24668673  0.07102825    -0.82800
C89         C  0.55642271  0.28121328  0.07783502     0.97750
O90         O  0.55413768  0.29967213  0.04517868    -0.82820
O91         O  0.48569501  0.27613495  0.06816454    -0.85430
C92         C  0.45093011  0.25351482  0.07497097     1.02220
O93         O  0.42949517  0.22563807  0.04425533    -0.78250
O94         O  0.43826922  0.17573478  0.06592962    -0.78400
C95         C  0.45471235  0.16364866  0.06920383     1.02180
Cr96       Cr  0.51649133  0.22331402  0.00036725     1.93740
Cr97       Cr  0.51001533  0.28205940  0.00069356     1.93210
Cr98       Cr  0.43904167  0.19839387  0.99902122     1.39100
O99         O  0.48827267  0.23451968  0.99997681    -1.23480
C100        C  0.43175198  0.07496237  0.24779996     0.00180
C101        C  0.41825601  0.03938840  0.24707714     0.00180
C102        C  0.39234029  0.96527824  0.44804843     0.02740
C103        C  0.38178677  0.93017835  0.45001980    -0.13410
C104        C  0.37536420  0.91207375  0.99907158     0.00240
C105        C  0.37972059  0.93085623  0.04632848    -0.11930
C106        C  0.39081650  0.96613691  0.04483448     0.02730
C107        C  0.39684892  0.98315482  0.99573808    -0.11350
H108        H  0.37894644  0.91782811  0.41225964     0.08330
H109        H  0.37461290  0.91884210  0.08524758     0.05860
H110        H  0.40545686  0.01044533  0.99468830     0.05710
C111        C  0.37657048  0.99184665  0.38222142    -0.09540
C112        C  0.39821326  0.98301578  0.39573500     0.06650
C113        C  0.42417064  0.99014414  0.35831396    -0.03310
C114        C  0.42886901  0.00682723  0.30949807    -0.07760
C115        C  0.40896705  0.01781811  0.29719515     0.05770
C116        C  0.38121015  0.00840308  0.33309245    -0.02790
Br117      Br  0.34647535  0.01398600  0.31498155    -0.02480
H118        H  0.35536978  0.98505096  0.40955886     0.09680
H119        H  0.44943475  0.01260707  0.28206300     0.07700
Br120      Br  0.45593592  0.98016667  0.37295639    -0.02910
C121        C  0.37569679  0.99650752  0.17319028    -0.09540
C122        C  0.41177852  0.02056472  0.19517151     0.06650
C123        C  0.44091557  0.02698387  0.16667874    -0.03310
C124        C  0.43364176  0.00963563  0.11726868    -0.07760
C125        C  0.39764887  0.98571961  0.09543248     0.05770
C126        C  0.36851391  0.97914175  0.12370648    -0.02790
Br127      Br  0.31866133  0.94666828  0.09594502    -0.02480
H128        H  0.35310467  0.99143950  0.19445385     0.09680
H129        H  0.45609452  0.01438431  0.09605766     0.07700
Br130      Br  0.49087448  0.05791670  0.19345785    -0.02910
C131        C  0.41662910  0.10582191  0.30365831    -0.09540
C132        C  0.43746655  0.09519092  0.29773258     0.06650
C133        C  0.46592050  0.10836351  0.33524484    -0.03310
C134        C  0.47390895  0.13290217  0.37561441    -0.07760
C135        C  0.45345521  0.14393927  0.38047367     0.05770
C136        C  0.42388802  0.12934482  0.34490118    -0.02790
Br137      Br  0.39410061  0.14242775  0.34794429    -0.02480
H138        H  0.39471529  0.09613501  0.27542499     0.09680
H139        H  0.49638969  0.14357494  0.40338923     0.07700
Br140      Br  0.49662948  0.09632721  0.33262152    -0.02910
C141        C  0.47737691  0.14560944  0.13572243    -0.09540
C142        C  0.44671486  0.13834709  0.11215927     0.06650
C143        C  0.41056264  0.10780222  0.13019122    -0.03310
C144        C  0.40600980  0.08557470  0.17177450    -0.07760
C145        C  0.43716334  0.09454098  0.19751305     0.05770
C146        C  0.47313266  0.12543639  0.17947917    -0.02790
Br147      Br  0.51806793  0.14416215  0.21466494    -0.02480
H148        H  0.50532157  0.16869790  0.12179639     0.09680
H149        H  0.37817954  0.06231891  0.18585432     0.07700
Br150      Br  0.36687319  0.09489192  0.09888756    -0.02910
C151        C  0.43900518  0.28904771  0.20085950    -0.09540
C152        C  0.40019112  0.26697557  0.20189861     0.06650
C153        C  0.37849321  0.24174004  0.15962683    -0.03310
C154        C  0.39581828  0.23859184  0.11839450    -0.07760
C155        C  0.43459764  0.25971465  0.11839131     0.05770
C156        C  0.45631251  0.28551812  0.16036728    -0.02790
Br157      Br  0.50925944  0.31547344  0.16818076    -0.02480
H158        H  0.45610601  0.30873453  0.23283537     0.09680
H159        H  0.37853646  0.21879675  0.08659832     0.07700
Br160      Br  0.32515647  0.20904986  0.15686405    -0.02910
C161        C  0.39753093  0.22404616  0.35738832    -0.09540
C162        C  0.42743495  0.25502840  0.38699223     0.06650
C163        C  0.43925451  0.29037851  0.37568559    -0.03310
C164        C  0.42306039  0.29409701  0.33317599    -0.07760
C165        C  0.39510316  0.26332308  0.30157879     0.05770
C166        C  0.38168043  0.22792813  0.31497353    -0.02790
Br167      Br  0.34186919  0.18374349  0.27671492    -0.02480
H168        H  0.38655720  0.19643021  0.36658247     0.09680
H169        H  0.43349905  0.32148179  0.32312975     0.07700
Br170      Br  0.47770227  0.33516731  0.41462284    -0.02910
C171        C  0.59428507  0.33516491  0.35612900    -0.09540
C172        C  0.58983175  0.30852605  0.38810594     0.06650
C173        C  0.61305192  0.30066671  0.37837531    -0.03310
C174        C  0.63889373  0.31855005  0.33691795    -0.07760
C175        C  0.64246135  0.34423662  0.30402183     0.05770
C176        C  0.61992632  0.35263168  0.31420959    -0.02790
Br177      Br  0.62181808  0.38659438  0.27077946    -0.02480
H178        H  0.57707554  0.34183788  0.36276515     0.09680
H179        H  0.65442430  0.31022315  0.32783456     0.07700
Br180      Br  0.60964183  0.26365576  0.41582360    -0.02910
C181        C  0.61589016  0.33851057  0.11789208    -0.09540
C182        C  0.58362000  0.30049013  0.12231588     0.06650
C183        C  0.57817812  0.28145563  0.16928639    -0.03310
C184        C  0.60572996  0.29930568  0.20828931    -0.07760
C185        C  0.63787008  0.33731528  0.20463549     0.05770
C186        C  0.64249962  0.35722679  0.15907766    -0.02790
Br187      Br  0.68245429  0.41007529  0.15259487    -0.02480
H188        H  0.62018206  0.35393597  0.08265268     0.09680
H189        H  0.60098136  0.28349241  0.24325764     0.07700
Br190      Br  0.53194387  0.23297066  0.18696862    -0.02910
C191        C  0.38672749  0.31674547  0.16251522    -0.09540
C192        C  0.35769266  0.29162748  0.19860915     0.06650
C193        C  0.32098950  0.27527068  0.18506842    -0.03310
C194        C  0.31392977  0.28325134  0.13600523    -0.07760
C195        C  0.34273720  0.30727087  0.09948539     0.05770
C196        C  0.37948416  0.32439179  0.11319376    -0.02790
Br197      Br  0.42078174  0.35952886  0.06696850    -0.02480
H198        H  0.41524546  0.33063703  0.17285955     0.09680
H199        H  0.28555062  0.26999133  0.12573639     0.07700
Br200      Br  0.27864034  0.23935256  0.22935249    -0.02910
C201        C  0.35918258  0.32979960  0.36436591    -0.09540
C202        C  0.33566025  0.30017496  0.40000004     0.06650
C203        C  0.32147098  0.26447256  0.38581609    -0.03310
C204        C  0.33112071  0.25903573  0.33670639    -0.07760
C205        C  0.35501157  0.28880822  0.30108453     0.05770
C206        C  0.36915351  0.32452439  0.31556191    -0.02790
Br207      Br  0.40439254  0.36781008  0.27254998    -0.02480
H208        H  0.37058060  0.35746883  0.37520337     0.09680
H209        H  0.31978575  0.23137993  0.32603613     0.07700
Br210      Br  0.28772402  0.22210683  0.43105908    -0.02910
C211        C  0.70236474  0.34465333  0.16609355    -0.09540
C212        C  0.71860319  0.37569135  0.19965991     0.06650
C213        C  0.75300343  0.41044703  0.18421138    -0.03310
C214        C  0.76931546  0.41392455  0.13555113    -0.07760
C215        C  0.75209034  0.38339082  0.10105067     0.05770
C216        C  0.71842093  0.34840176  0.11682887    -0.02790
Br217      Br  0.69409280  0.30481329  0.07330310    -0.02480
H218        H  0.67698065  0.31733816  0.17810655     0.09680
H219        H  0.79538651  0.44092984  0.12400462     0.07700
Br220      Br  0.77834582  0.45491608  0.22598283    -0.02910
C221        C  0.74309571  0.40844936  0.39048344    -0.09540
C222        C  0.75486016  0.38904737  0.40068335     0.06650
C223        C  0.75019840  0.36564175  0.36051759    -0.03310
C224        C  0.73356314  0.36159212  0.31179538    -0.07760
C225        C  0.72103082  0.38034353  0.30178210     0.05770
C226        C  0.72669101  0.40463648  0.34149593    -0.02790
Br227      Br  0.71451885  0.43480937  0.33034158    -0.02480
H228        H  0.74724488  0.42713621  0.42051246     0.09680
H229        H  0.72919946  0.34260782  0.28212900     0.07700
Br230      Br  0.76390693  0.33668202  0.37118070    -0.02910
C231        C  0.95421992  0.46751825  0.31006109    -0.09540
C232        C  0.96695568  0.44883342  0.30098648     0.06650
C233        C  0.96073103  0.42446792  0.34096040    -0.03310
C234        C  0.94517788  0.42190680  0.39005196    -0.07760
C235        C  0.93454409  0.44234796  0.39996003     0.05770
C236        C  0.93873826  0.46494726  0.35904893    -0.02790
Br237      Br  0.92689754  0.49554422  0.36936145    -0.02480
H238        H  0.95851441  0.48618077  0.28001182     0.09680
H239        H  0.94077278  0.40335503  0.42042576     0.07700
Br240      Br  0.97010548  0.39192002  0.33035665    -0.02910
C241        C  0.92473824  0.41661898  0.12881541    -0.09540
C242        C  0.93894411  0.44864182  0.10011752     0.06650
C243        C  0.96932341  0.48387086  0.12124011    -0.03310
C244        C  0.98501452  0.48652794  0.17037774    -0.07760
C245        C  0.97093425  0.45434780  0.19903989     0.05770
C246        C  0.94045925  0.41917697  0.17762973    -0.02790
Br247      Br  0.92014012  0.37354268  0.21172694    -0.02480
H248        H  0.90141563  0.38937666  0.11281417     0.09680
H249        H  0.00825089  0.51378343  0.18640301     0.07700
Br250      Br  0.98943798  0.52886874  0.08500021    -0.02910
C251        C  0.19220149  0.44178192  0.38148526    -0.09540
C252        C  0.20974176  0.47961257  0.38006721     0.06650
C253        C  0.23127841  0.50096830  0.33497889    -0.03310
C254        C  0.23638378  0.48498178  0.29455392    -0.07760
C255        C  0.21962491  0.44744216  0.29614350     0.05770
C256        C  0.19628962  0.42539923  0.33967402    -0.02790
Br257      Br  0.16642481  0.37252191  0.34264431    -0.02480
H258        H  0.17462242  0.42456158  0.41492070     0.09680
H259        H  0.25371778  0.50234553  0.26111359     0.07700
Br260      Br  0.25267132  0.55130601  0.32277868    -0.02910
C261        C  0.17813645  0.44334626  0.14062012    -0.09540
C262        C  0.20911116  0.47494884  0.11344915     0.06650
C263        C  0.24513168  0.48872360  0.12624426    -0.03310
C264        C  0.24933290  0.47211702  0.16719906    -0.07760
C265        C  0.21850403  0.44242531  0.19659640     0.05770
C266        C  0.18259274  0.42727516  0.18187447    -0.02790
Br267      Br  0.13869375  0.38508809  0.21749775    -0.02480
H268        H  0.15013655  0.43141878  0.13076119     0.09680
H269        H  0.27712549  0.48414723  0.17882870     0.07700
Br270      Br  0.29036688  0.53157664  0.09335751    -0.02910
C271        C  0.07486602  0.50585081  0.38709530    -0.09540
C272        C  0.08965309  0.48862649  0.38712469     0.06650
C273        C  0.08092774  0.46496222  0.34407410    -0.03310
C274        C  0.05885277  0.45999958  0.30222016    -0.07760
C275        C  0.04487296  0.47795852  0.30160593     0.05770
C276        C  0.05328987  0.50131168  0.34480954    -0.02790
Br277      Br  0.04051772  0.53143941  0.34688543    -0.02480
H278        H  0.08136104  0.52443488  0.41928608     0.09680
H279        H  0.05283943  0.44211958  0.26921621     0.07700
Br280      Br  0.09898850  0.43957846  0.33743319    -0.02910
C281        C  0.10472696  0.52738396  0.15296636    -0.09540
C282        C  0.09508478  0.49875074  0.11920639     0.06650
C283        C  0.05977963  0.46238962  0.12602962    -0.03310
C284        C  0.03636699  0.45541165  0.16752267    -0.07760
C285        C  0.04696519  0.48396352  0.20221465     0.05770
C286        C  0.08115123  0.52039443  0.19369269    -0.02790
Br287      Br  0.09750988  0.56222037  0.23575159    -0.02480
H288        H  0.13108290  0.55565097  0.14818664     0.09680
H289        H  0.01032036  0.42719532  0.17409194     0.07700
Br290      Br  0.04117205  0.42056097  0.08144826    -0.02910
C291        C  0.30332708  0.67242572  0.18387510    -0.09540
C292        C  0.28702061  0.68742059  0.19511129     0.06650
C293        C  0.25788257  0.67765138  0.16234496    -0.03310
C294        C  0.24508024  0.65273542  0.12035282    -0.07760
C295        C  0.25983041  0.63597770  0.11058058     0.05770
C296        C  0.29002977  0.64682156  0.14218262    -0.02790
Br297      Br  0.31399816  0.62759870  0.13180957    -0.02480
H298        H  0.32536014  0.67933216  0.20947443     0.09680
H299        H  0.22169963  0.64477397  0.09716540     0.07700
Br300      Br  0.23018575  0.69228981  0.17755819    -0.02910
C301        C  0.24271667  0.64651003  0.29108918    -0.09540
C302        C  0.28030120  0.67978272  0.29368838     0.06650
C303        C  0.30263289  0.68461165  0.33580976    -0.03310
C304        C  0.28621688  0.65811847  0.37677193    -0.07760
C305        C  0.24802744  0.62584667  0.37526230     0.05770
C306        C  0.22667201  0.61954125  0.33047103    -0.02790
Br307      Br  0.17613208  0.57394532  0.31787702    -0.02480
H308        H  0.22538815  0.64126454  0.25785016     0.09680
H309        H  0.30343122  0.66275958  0.40981383     0.07700
Br310      Br  0.35575469  0.72445560  0.33694892    -0.02910
C311        C  0.27845772  0.42606102  0.39046722    -0.09540
C312        C  0.26011743  0.38872733  0.40067510     0.06650
C313        C  0.23756824  0.36182420  0.36051177    -0.03310
C314        C  0.23302329  0.37237659  0.31173908    -0.07760
C315        C  0.25015208  0.40949221  0.30195456     0.05770
C316        C  0.27427639  0.43678254  0.34136633    -0.02790
Br317      Br  0.30511755  0.48927252  0.32947256    -0.02480
H318        H  0.29696064  0.44712967  0.42036673     0.09680
H319        H  0.21475086  0.35112065  0.28192197     0.07700
Br320      Br  0.21061372  0.30989721  0.37117049    -0.02910
C321        C  0.28605591  0.40911740  0.13386561    -0.09540
C322        C  0.25522944  0.38358887  0.10063056     0.06650
C323        C  0.21951857  0.36786872  0.11783878    -0.03310
C324        C  0.21528895  0.37829421  0.16731868    -0.07760
C325        C  0.24638226  0.40493377  0.19991480     0.05770
C326        C  0.28198698  0.41996658  0.18288548    -0.02790
Br327      Br  0.32647805  0.45684526  0.22304283    -0.02480
H328        H  0.31365103  0.42124982  0.12103973     0.09680
H329        H  0.18764471  0.36588676  0.18021801     0.07700
Br330      Br  0.17579728  0.33140052  0.07586513    -0.02910
C331        C  0.29944284  0.76560086  0.39312284    -0.09540
C332        C  0.33626807  0.79797550  0.40446394     0.06650
C333        C  0.36399386  0.81197987  0.36566669    -0.03310
C334        C  0.35472879  0.79327778  0.31696734    -0.07760
C335        C  0.31794069  0.76051696  0.30547186     0.05770
C336        C  0.28988297  0.74729364  0.34387254    -0.02790
Br337      Br  0.23760730  0.70792262  0.32974021    -0.02480
H338        H  0.27770349  0.75546169  0.42190647     0.09680
H339        H  0.37655774  0.80422014  0.28794915     0.07700
Br340      Br  0.41510574  0.85621259  0.37766269    -0.02910
C341        C  0.34791931  0.76923900  0.16724049    -0.09540
C342        C  0.32348755  0.76609729  0.20324696     0.06650
C343        C  0.31092490  0.78479805  0.19100225    -0.03310
C344        C  0.32015349  0.80309919  0.14211694    -0.07760
C345        C  0.34254464  0.80413653  0.10474894     0.05770
C346        C  0.35738833  0.78788505  0.11844304    -0.02790
Br347      Br  0.39198655  0.79176533  0.07322104    -0.02480
H348        H  0.35938575  0.75671864  0.17691347     0.09680
H349        H  0.30891233  0.81587596  0.13262872     0.07700
Br350      Br  0.27925158  0.78488946  0.23725934    -0.02910
C351        C  0.34465681  0.81828198  0.95513785     0.02740
C352        C  0.35535361  0.85338834  0.95378938    -0.13410
C353        C  0.36419244  0.87421305  0.50090253     0.00240
C354        C  0.36167840  0.85790248  0.54979788    -0.11930
C355        C  0.34930072  0.82197278  0.55200182     0.02730
C356        C  0.34060558  0.80221054  0.00433919    -0.11350
H357        H  0.35585873  0.86329573  0.91503873     0.08330
H358        H  0.36905301  0.87236994  0.58724579     0.05860
H359        H  0.33039825  0.77425283  0.00546483     0.05710
C360        C  0.26150684  0.37378700  0.54878600     0.02740
C361        C  0.25638055  0.38456635  0.50055885    -0.13410
C362        C  0.26632338  0.37853114  0.95218538     0.00240
C363        C  0.28317128  0.36352252  0.95258189    -0.11930
C364        C  0.28750309  0.35124355  0.50029106     0.02730
C365        C  0.27569777  0.35614202  0.54821286    -0.11350
H366        H  0.24505964  0.39786931  0.50071768     0.08330
H367        H  0.29308952  0.36223919  0.91489720     0.05860
H368        H  0.27734721  0.34666365  0.58602162     0.05710
C369        C  0.31044345  0.74221422  0.75224989     0.00180
C370        C  0.29505042  0.70590904  0.74774942     0.00180
O371        O  0.19633563  0.58015642  0.92925429    -0.85740
O372        O  0.12519581  0.52306330  0.96396705    -0.82780
C373        C  0.11590008  0.49855041  0.93047176     0.97730
O374        O  0.12915139  0.48333234  0.93456139    -0.82820
O375        O  0.17843403  0.47456292  0.95806341    -0.85460
C376        C  0.20466537  0.49578462  0.92516146     1.02250
O377        O  0.22703991  0.53056860  0.93129895    -0.78220
O378        O  0.25037150  0.59884885  0.95293140    -0.78410
C379        C  0.23067181  0.59990035  0.92090171     1.02200
O380        O  0.22070034  0.60503850  0.53554617    -0.85730
O381        O  0.15126081  0.54236804  0.57076386    -0.82800
C382        C  0.12225116  0.50860483  0.57731396     0.97750
O383        O  0.11594136  0.48384260  0.54697622    -0.82820
O384        O  0.17031357  0.48154097  0.56919101    -0.85430
C385        C  0.20239456  0.49238807  0.57306052     1.02220
O386        O  0.22808209  0.51699892  0.54175164    -0.78250
O387        O  0.24537444  0.58330571  0.56599080    -0.78400
C388        C  0.24145464  0.60665780  0.56875445     1.02180
Cr389      Cr  0.17434490  0.56067806  0.00004466     1.93740
Cr390      Cr  0.15106880  0.48444016  0.00218446     1.93210
Cr391      Cr  0.23423783  0.55578035  0.99845027     1.39100
O392        O  0.18662284  0.53352210  0.00054113    -1.23480
C393        C  0.24123193  0.41776085  0.75050251     0.00180
C394        C  0.22508262  0.43273770  0.74860795     0.00180
C395        C  0.02531917  0.47422456  0.75208259     0.00180
C396        C  0.98868073  0.45796673  0.75086304     0.00180
C397        C  0.92081289  0.44408086  0.54886523     0.02740
C398        C  0.93706126  0.44720645  0.00013369    -0.13410
C399        C  0.91770494  0.43859496  0.95210652     0.00240
C400        C  0.88146165  0.42533663  0.95347682    -0.11930
C401        C  0.86498601  0.42352176  0.00158633     0.02730
C402        C  0.88561224  0.43341895  0.54924119    -0.11350
H403        H  0.96442008  0.45588174  0.99966920     0.08330
H404        H  0.86650328  0.41607591  0.91611085     0.05860
H405        H  0.87495127  0.43286068  0.58744711     0.05710
C406        C  0.77279725  0.39419543  0.95266091     0.02740
C407        C  0.80941673  0.40834569  0.95371779    -0.13410
C408        C  0.82646734  0.41076052  0.00170174     0.00240
C409        C  0.80601487  0.40073402  0.54946050    -0.11930
C410        C  0.77039052  0.38912633  0.54946822     0.02730
C411        C  0.75369585  0.38542167  0.00086739    -0.11350
H412        H  0.82408097  0.41755038  0.91621530     0.08330
H413        H  0.81706443  0.40155194  0.58746661     0.05860
H414        H  0.72600580  0.37598407  0.00061050     0.05710
C415        C  0.32698279  0.30778262  0.95165808     0.02740
C416        C  0.30933265  0.32198960  0.95221451    -0.13410
C417        C  0.30480942  0.33422146  0.50010672     0.00240
C418        C  0.31758926  0.33033859  0.54778703    -0.11930
C419        C  0.33337964  0.31428150  0.54797816     0.02730
C420        C  0.33853556  0.30347331  0.99976748    -0.11350
H421        H  0.29926483  0.32306912  0.91451384     0.08330
H422        H  0.31611285  0.34002445  0.58559343     0.05860
H423        H  0.35163365  0.29193898  0.99967474     0.05710
C424        C  0.69988043  0.37151065  0.75099672     0.00180
C425        C  0.66300910  0.35488027  0.75253220     0.00180
C426        C  0.36598396  0.28241275  0.74976250     0.00180
C427        C  0.38405626  0.26944939  0.75044963     0.00180
O428        O  0.49772122  0.19898297  0.93002430    -0.85740
O429        O  0.56001362  0.26945181  0.96387457    -0.82780
C430        C  0.56042760  0.28885603  0.92981634     0.97730
O431        O  0.53643400  0.29198355  0.93255816    -0.82820
O432        O  0.47053235  0.27518040  0.95812927    -0.85460
C433        C  0.44527022  0.24894794  0.92791230     1.02250
O434        O  0.43462020  0.21704918  0.93262793    -0.78220
O435        O  0.43869699  0.16399563  0.95277658    -0.78410
C436        C  0.46371123  0.17067248  0.92263052     1.02200
O437        O  0.48018794  0.17445701  0.53667050    -0.85730
O438        O  0.53690505  0.24671497  0.57104240    -0.82800
C439        C  0.55647993  0.28123975  0.57784772     0.97750
O440        O  0.55419798  0.29969397  0.54517661    -0.82820
O441        O  0.48575172  0.27614735  0.56816871    -0.85430
C442        C  0.45098575  0.25352716  0.57496649     1.02220
O443        O  0.42955493  0.22564388  0.54425907    -0.78250
O444        O  0.43833736  0.17574641  0.56592968    -0.78400
C445        C  0.45478438  0.16366488  0.56921345     1.02180
Cr446      Cr  0.51656492  0.22333703  0.50038278     1.93740
Cr447      Cr  0.51007055  0.28207046  0.50069681     1.93210
Cr448      Cr  0.43910825  0.19840448  0.49902418     1.39100
O449        O  0.48833731  0.23453358  0.49998474    -1.23480
C450        C  0.43175013  0.07495813  0.74783152     0.00180
C451        C  0.41826174  0.03938724  0.74709776     0.00180
C452        C  0.39231773  0.96525277  0.94805010     0.02740
C453        C  0.38177595  0.93015852  0.95002095    -0.13410
C454        C  0.37539561  0.91210234  0.49907165     0.00240
C455        C  0.37977622  0.93089700  0.54632920    -0.11930
C456        C  0.39087015  0.96617679  0.54483430     0.02730
C457        C  0.39688968  0.98318890  0.49573720    -0.11350
H458        H  0.37896218  0.91781918  0.91226317     0.08330
H459        H  0.37468714  0.91889324  0.58525106     0.05860
H460        H  0.40549865  0.01047986  0.49468723     0.05710
C461        C  0.37654301  0.99180894  0.88221022    -0.09540
C462        C  0.39819720  0.98299392  0.89573870     0.06650
C463        C  0.42417267  0.99014276  0.85833540    -0.03310
C464        C  0.42887672  0.00683025  0.80952133    -0.07760
C465        C  0.40896367  0.01780714  0.79720647     0.05770
C466        C  0.38119005  0.00837190  0.83308492    -0.02790
Br467      Br  0.34644714  0.01394045  0.81495343    -0.02480
H468        H  0.35532951  0.98499774  0.90953423     0.09680
H469        H  0.44945721  0.01262804  0.78209962     0.07700
Br470      Br  0.45595615  0.98019107  0.87300420    -0.02910
C471        C  0.37572069  0.99651269  0.67319696    -0.09540
C472        C  0.41179942  0.02057545  0.69518702     0.06650
C473        C  0.44094708  0.02701408  0.66669609    -0.03310
C474        C  0.43368585  0.00967767  0.61727826    -0.07760
C475        C  0.39769506  0.98575547  0.59543350     0.05770
C476        C  0.36855044  0.97915986  0.62370616    -0.02790
Br477      Br  0.31870030  0.94667823  0.59593416    -0.02480
H478        H  0.35312083  0.99143074  0.69445882     0.09680
H479        H  0.45614606  0.01443943  0.59606916     0.07700
Br480      Br  0.49090298  0.05795801  0.69349154    -0.02910
C481        C  0.41658325  0.10579113  0.80365930    -0.09540
C482        C  0.43743053  0.09516856  0.79776601     0.06650
C483        C  0.46586728  0.10833844  0.83530943    -0.03310
C484        C  0.47383586  0.13287248  0.87567002    -0.07760
C485        C  0.45337999  0.14390892  0.88048957     0.05770
C486        C  0.42382320  0.12931097  0.84489440    -0.02790
Br487      Br  0.39403105  0.14238970  0.84789512    -0.02480
H488        H  0.39468076  0.09610395  0.77540255     0.09680
H489        H  0.49630693  0.14354670  0.90346559     0.07700
Br490      Br  0.49658559  0.09631220  0.83273799    -0.02910
C491        C  0.47742943  0.14563187  0.63578401    -0.09540
C492        C  0.44677492  0.13835811  0.61216757     0.06650
C493        C  0.41061448  0.10780006  0.63015467    -0.03310
C494        C  0.40604467  0.08557326  0.67175327    -0.07760
C495        C  0.43718767  0.09455034  0.69754659     0.05770
C496        C  0.47316580  0.12545767  0.67955506    -0.02790
Br497      Br  0.51808344  0.14419515  0.71481629    -0.02480
H498        H  0.50538009  0.16872888  0.62188829     0.09680
H499        H  0.37820749  0.06230704  0.68579805     0.07700
Br500      Br  0.36693660  0.09486803  0.59876166    -0.02910
C501        C  0.43903966  0.28908804  0.70079862    -0.09540
C502        C  0.40022565  0.26702141  0.70181545     0.06650
C503        C  0.37853726  0.24178639  0.65953848    -0.03310
C504        C  0.39586969  0.23862763  0.61833192    -0.07760
C505        C  0.43464670  0.25973822  0.61835989     0.05770
C506        C  0.45635339  0.28554572  0.66033454    -0.02790
Br507      Br  0.50929483  0.31548311  0.66818994    -0.02480
H508        H  0.45613418  0.30877410  0.73277807     0.09680
H509        H  0.37859469  0.21883206  0.58653293     0.07700
Br510      Br  0.32520248  0.20910466  0.65673817    -0.02910
C511        C  0.39751932  0.22405724  0.85732276    -0.09540
C512        C  0.42740812  0.25503361  0.88695323     0.06650
C513        C  0.43923801  0.29038738  0.87564196    -0.03310
C514        C  0.42306751  0.29411515  0.83310787    -0.07760
C515        C  0.39512254  0.26334672  0.80149322     0.05770
C516        C  0.38169118  0.22794849  0.81488476    -0.02790
Br517      Br  0.34189544  0.18377257  0.77659474    -0.02480
H518        H  0.38654044  0.19643904  0.86651457     0.09680
H519        H  0.43351075  0.32150192  0.82306314     0.07700
Br520      Br  0.47766524  0.33516845  0.91460982    -0.02910
C521        C  0.59427064  0.33518422  0.85616553    -0.09540
C522        C  0.58980509  0.30853708  0.88813836     0.06650
C523        C  0.61303803  0.30068974  0.87843308    -0.03310
C524        C  0.63889586  0.31858418  0.83699445    -0.07760
C525        C  0.64246974  0.34427248  0.80409323     0.05770
C526        C  0.61993067  0.35266487  0.81426823    -0.02790
Br527      Br  0.62184174  0.38664261  0.77084633    -0.02480
H528        H  0.57705610  0.34185272  0.86278640     0.09680
H529        H  0.65443215  0.31026181  0.82792621     0.07700
Br530      Br  0.60962880  0.26368273  0.91589339    -0.02910
C531        C  0.61592392  0.33854275  0.61793753    -0.09540
C532        C  0.58365858  0.30051968  0.62234878     0.06650
C533        C  0.57820015  0.28148685  0.66933076    -0.03310
C534        C  0.60573651  0.29933970  0.70835583    -0.07760
C535        C  0.63787626  0.33734916  0.70470717     0.05770
C536        C  0.64251678  0.35726126  0.65914280    -0.02790
Br537      Br  0.68246621  0.41011184  0.65267323    -0.02480
H538        H  0.62022550  0.35396758  0.58269134     0.09680
H539        H  0.60097880  0.28352704  0.74333063     0.07700
Br540      Br  0.53196298  0.23299907  0.68699229    -0.02910
C541        C  0.38672653  0.31677953  0.66247375    -0.09540
C542        C  0.35769524  0.29164697  0.69856255     0.06650
C543        C  0.32098751  0.27528081  0.68503407    -0.03310
C544        C  0.31392013  0.28326983  0.63598692    -0.07760
C545        C  0.34272481  0.30730586  0.59947292     0.05770
C546        C  0.37947573  0.32443538  0.61316911    -0.02790
Br547      Br  0.42076657  0.35959428  0.56694740    -0.02480
H548        H  0.41524694  0.33067551  0.67280983     0.09680
H549        H  0.28553770  0.27000122  0.62572346     0.07700
Br550      Br  0.27864341  0.23933513  0.72930806    -0.02910
C551        C  0.35921569  0.32980090  0.86436146    -0.09540
C552        C  0.33570087  0.30017205  0.89999323     0.06650
C553        C  0.32150621  0.26447084  0.88578624    -0.03310
C554        C  0.33114096  0.25903924  0.83665606    -0.07760
C555        C  0.35502412  0.28881603  0.80103653     0.05770
C556        C  0.36917264  0.32453111  0.81553783    -0.02790
Br557      Br  0.40440124  0.36782221  0.77252946    -0.02480
H558        H  0.37061620  0.35746888  0.87521348     0.09680
H559        H  0.31980281  0.23138457  0.82596999     0.07700
Br560      Br  0.28777134  0.22209941  0.93102473    -0.02910
C561        C  0.70234380  0.34466319  0.66612848    -0.09540
C562        C  0.71859463  0.37570114  0.69970192     0.06650
C563        C  0.75299368  0.41045438  0.68424337    -0.03310
C564        C  0.76929082  0.41393032  0.63556753    -0.07760
C565        C  0.75205285  0.38339740  0.60105989     0.05770
C566        C  0.71838467  0.34841017  0.61684805    -0.02790
Br567      Br  0.69403775  0.30482105  0.57331637    -0.02480
H568        H  0.67696068  0.31734922  0.67814729     0.09680
H569        H  0.79536229  0.44093381  0.62401668     0.07700
Br570      Br  0.77835550  0.45492237  0.72602523    -0.02910
C571        C  0.74313776  0.40846657  0.89051530    -0.09540
C572        C  0.75490424  0.38906408  0.90069145     0.06650
C573        C  0.75022879  0.36565523  0.86051878    -0.03310
C574        C  0.73357560  0.36160116  0.81181338    -0.07760
C575        C  0.72104060  0.38035274  0.80182468     0.05770
C576        C  0.72671629  0.40465029  0.84154444    -0.02790
Br577      Br  0.71454504  0.43482635  0.83041977    -0.02480
H578        H  0.74729652  0.42715496  0.92055123     0.09680
H579        H  0.72920202  0.34261495  0.78214055     0.07700
Br580      Br  0.76394173  0.33669696  0.87115174    -0.02910
C581        C  0.95424079  0.46753329  0.81004891    -0.09540
C582        C  0.96697569  0.44884995  0.80095222     0.06650
C583        C  0.96076287  0.42448571  0.84091784    -0.03310
C584        C  0.94522124  0.42192374  0.89002199    -0.07760
C585        C  0.93458822  0.44236346  0.89995112     0.05770
C586        C  0.93877236  0.46496288  0.85904973    -0.02790
Br587      Br  0.92693529  0.49556081  0.86939186    -0.02480
H588        H  0.95852743  0.48619554  0.78000697     0.09680
H589        H  0.94082302  0.40337140  0.92038801     0.07700
Br590      Br  0.97013939  0.39194144  0.83028666    -0.02910
C591        C  0.92472283  0.41662979  0.62880087    -0.09540
C592        C  0.93891003  0.44865098  0.60011605     0.06650
C593        C  0.96928779  0.48388194  0.62123538    -0.03310
C594        C  0.98499723  0.48654266  0.67035622    -0.07760
C595        C  0.97093543  0.45436426  0.69900567     0.05770
C596        C  0.94046095  0.41919144  0.67759933    -0.02790
Br597      Br  0.92016615  0.37355950  0.71167739    -0.02480
H598        H  0.90140306  0.38938605  0.61280008     0.09680
H599        H  0.00823214  0.51379952  0.68637948     0.07700
Br600      Br  0.98937621  0.52887685  0.58501226    -0.02910
C601        C  0.19219696  0.44179011  0.88151411    -0.09540
C602        C  0.20973047  0.47961869  0.88008526     0.06650
C603        C  0.23127648  0.50097492  0.83500332    -0.03310
C604        C  0.23639552  0.48499073  0.79459447    -0.07760
C605        C  0.21963781  0.44745141  0.79618992     0.05770
C606        C  0.19629687  0.42540869  0.83971633    -0.02790
Br607      Br  0.16643829  0.37253263  0.84269612    -0.02480
H608        H  0.17461291  0.42456992  0.91494631     0.09680
H609        H  0.25373501  0.50235468  0.76115772     0.07700
Br610      Br  0.25266100  0.55130835  0.82278640    -0.02910
C611        C  0.17815902  0.44335817  0.64064801    -0.09540
C612        C  0.20913641  0.47495478  0.61347107     0.06650
C613        C  0.24515494  0.48872824  0.62627657    -0.03310
C614        C  0.24935156  0.47212539  0.66724426    -0.07760
C615        C  0.21851980  0.44243821  0.69664322     0.05770
C616        C  0.18261064  0.42729087  0.68191492    -0.02790
Br617      Br  0.13870844  0.38511232  0.71754495    -0.02480
H618        H  0.15016042  0.43143228  0.63078345     0.09680
H619        H  0.27714256  0.48415335  0.67887910     0.07700
Br620      Br  0.29039279  0.53157352  0.59338414    -0.02910
C621        C  0.07486765  0.50587775  0.88705268    -0.09540
C622        C  0.08964796  0.48864693  0.88709548     0.06650
C623        C  0.08093667  0.46499301  0.84403713    -0.03310
C624        C  0.05887621  0.46004108  0.80216848    -0.07760
C625        C  0.04489556  0.47799898  0.80154833     0.05770
C626        C  0.05330571  0.50134879  0.84475277    -0.02790
Br627      Br  0.04054065  0.53148278  0.84681341    -0.02480
H628        H  0.08135585  0.52445760  0.91924569     0.09680
H629        H  0.05287008  0.44216560  0.76916235     0.07700
Br630      Br  0.09899478  0.43960622  0.83740808    -0.02910
C631        C  0.10474837  0.52740617  0.65292407    -0.09540
C632        C  0.09511000  0.49876849  0.61917914     0.06650
C633        C  0.05979971  0.46241060  0.62599442    -0.03310
C634        C  0.03638048  0.45543864  0.66747213    -0.07760
C635        C  0.04697708  0.48399373  0.70215544     0.05770
C636        C  0.08116577  0.52042287  0.69363367    -0.02790
Br637      Br  0.09752043  0.56225417  0.73567357    -0.02480
H638        H  0.13110692  0.55567164  0.64814656     0.09680
H639        H  0.01033173  0.42722361  0.67404048     0.07700
Br640      Br  0.04119446  0.42057832  0.58142365    -0.02910
C641        C  0.30333218  0.67241918  0.68389279    -0.09540
C642        C  0.28702626  0.68741755  0.69510603     0.06650
C643        C  0.25789820  0.67765210  0.66231890    -0.03310
C644        C  0.24510694  0.65273914  0.62032658    -0.07760
C645        C  0.25985598  0.63597801  0.61057598     0.05770
C646        C  0.29004380  0.64681562  0.64220203    -0.02790
Br647      Br  0.31400545  0.62758266  0.63186761    -0.02480
H648        H  0.32535654  0.67932155  0.70950937     0.09680
H649        H  0.22173421  0.64478208  0.59712190     0.07700
Br650      Br  0.23019814  0.69229072  0.67750154    -0.02910
C651        C  0.24270025  0.64650947  0.79107949    -0.09540
C652        C  0.28028657  0.67977847  0.79368150     0.06650
C653        C  0.30261202  0.68460625  0.83581183    -0.03310
C654        C  0.28618876  0.65811658  0.87677926    -0.07760
C655        C  0.24799740  0.62584931  0.87526832     0.05770
C656        C  0.22664712  0.61954477  0.83047009    -0.02790
Br657      Br  0.17610332  0.57395544  0.81787926    -0.02480
H658        H  0.22537695  0.64126518  0.75783309     0.09680
H659        H  0.30339937  0.66275668  0.90982626     0.07700
Br660      Br  0.35573485  0.72444364  0.83695722    -0.02910
C661        C  0.27846637  0.42603513  0.89049152    -0.09540
C662        C  0.26013159  0.38870104  0.90068336     0.06650
C663        C  0.23757838  0.36180294  0.86051652    -0.03310
C664        C  0.23302337  0.37236074  0.81175742    -0.07760
C665        C  0.25014820  0.40947731  0.80198898     0.05770
C666        C  0.27427654  0.43676244  0.84140391    -0.02790
Br667      Br  0.30511415  0.48925401  0.82953131    -0.02480
H668        H  0.29697099  0.44710006  0.92039416     0.09680
H669        H  0.21474862  0.35110851  0.78193736     0.07700
Br670      Br  0.21063224  0.30987601  0.87115331    -0.02910
C671        C  0.28604283  0.40913693  0.63386381    -0.09540
C672        C  0.25521321  0.38361313  0.60063063     0.06650
C673        C  0.21950284  0.36788399  0.61785618    -0.03310
C674        C  0.21527661  0.37829505  0.66735306    -0.07760
C675        C  0.24637296  0.40492951  0.69994821     0.05770
C676        C  0.28197723  0.41997214  0.68290026    -0.02790
Br677      Br  0.32647084  0.45684529  0.72305675    -0.02480
H678        H  0.31363736  0.42127442  0.62102558     0.09680
H679        H  0.18763320  0.36588294  0.68026498     0.07700
Br680      Br  0.17577868  0.33142425  0.57588234    -0.02910
C681        C  0.29941461  0.76558270  0.89311073    -0.09540
C682        C  0.33624006  0.79795185  0.90446384     0.06650
C683        C  0.36397054  0.81195793  0.86567429    -0.03310
C684        C  0.35470997  0.79326299  0.81696961    -0.07760
C685        C  0.31792184  0.76050730  0.80546210     0.05770
C686        C  0.28985947  0.74728220  0.84385528    -0.02790
Br687      Br  0.23758505  0.70791756  0.82970593    -0.02480
H688        H  0.27767219  0.75544305  0.92188870     0.09680
H689        H  0.37654242  0.80420615  0.78795749     0.07700
Br690      Br  0.41508262  0.85618438  0.87768860    -0.02910
C691        C  0.34791421  0.76924106  0.66723534    -0.09540
C692        C  0.32347797  0.76609437  0.70323818     0.06650
C693        C  0.31091626  0.78479632  0.69099375    -0.03310
C694        C  0.32015026  0.80310337  0.64211239    -0.07760
C695        C  0.34254656  0.80414635  0.60474808     0.05770
C696        C  0.35738957  0.78789408  0.61844266    -0.02790
Br697      Br  0.39199663  0.79178385  0.57322873    -0.02480
H698        H  0.35938062  0.75672066  0.67690818     0.09680
H699        H  0.30890928  0.81588031  0.63262420     0.07700
Br700      Br  0.27923619  0.78488129  0.73724426    -0.02910
loop_ 
_geom_bond_atom_site_label_1 
_geom_bond_atom_site_label_2 
_geom_bond_distance 
_geom_bond_site_symmetry_2 
_ccdc_geom_bond_type 
C1            C2   1.402       .  A
C1            C6   1.400       .  A
C1          C332   1.483       .  S
C2          C353   1.416       .  A
C2            H7   1.076       .  S
C3            C4   1.418       .  A
C3          C352   1.416   1_554  A
C3          C104   1.521   1_554  S
C4            C5   1.407       .  A
C4            H8   1.076       .  S
C5          C356   1.403       .  A
C5          C345   1.491       .  S
C6          C355   1.403       .  A
C6            H9   1.084       .  S
C10          C11   1.402       .  A
C10          C15   1.402       .  A
C10         C322   1.481       .  S
C11         C362   1.402   1_554  A
C11          H16   1.084       .  S
C12          C13   1.402       .  A
C12         C361   1.402       .  A
C12         C312   1.481       .  S
C13         C364   1.412       .  A
C13          H17   1.078       .  S
C14          C15   1.414       .  A
C14         C363   1.412   1_554  A
C14          C67   1.510       .  S
C15          H18   1.078       .  S
C19          C20   1.375       .  D
C19         C335   1.502       .  S
C19         C342   1.507       .  S
C20         C292   1.489       .  S
C20         C302   1.493       .  S
O21         Cr39   1.957       .  S
O21          C29   1.258       .  A
O22         Cr39   1.991       .  S
O22          C23   1.261       .  A
C23         C272   1.482       .  S
C23          O24   1.257       .  A
O24         Cr40   1.977       .  S
O25         Cr40   2.005       .  S
O25          C26   1.265       .  A
C26         C252   1.481       .  S
C26          O27   1.258       .  A
O27         Cr41   1.964       .  S
O28         Cr41   2.018       .  S
O28          C29   1.269       .  A
C29         C305   1.477       .  S
O30        Cr389   1.990       .  S
O30          C38   1.262       .  A
O31        Cr389   1.964       .  S
O31          C32   1.262       .  A
C32         C282   1.486       .  S
C32          O33   1.267       .  A
O33        Cr390   2.015       .  S
O34        Cr390   1.966       .  S
O34          C35   1.261       .  A
C35         C262   1.485       .  S
C35          O36   1.264       .  A
O36        Cr391   2.006   1_554  S
O37        Cr391   1.988   1_554  S
O37          C38   1.261       .  A
C38         C295   1.483       .  S
Cr39        O380   1.990       .  S
Cr39        O381   1.964       .  S
Cr39         O42   1.759       .  S
Cr40        O383   2.015       .  S
Cr40        O384   1.966       .  S
Cr40         O42   1.767       .  S
Cr41        O386   2.006       .  S
Cr41        O387   1.988       .  S
Cr41         O42   1.768       .  S
C43          C44   1.370       .  D
C43         C315   1.496       .  S
C43         C325   1.500       .  S
C44         C255   1.496       .  S
C44         C265   1.488       .  S
C45          C46   1.371   1_455  D
C45         C275   1.492       .  S
C45         C285   1.491       .  S
C46         C232   1.500       .  S
C46         C245   1.499       .  S
C47          C52   1.405       .  A
C47         C398   1.403       .  A
C47         C242   1.483       .  S
C48          C49   1.403       .  A
C48         C397   1.403       .  A
C48          H53   1.084       .  S
C49          C50   1.402       .  A
C49         C235   1.486       .  S
C50          C51   1.414       .  A
C50          H54   1.078       .  S
C51         C402   1.416       .  A
C51          C58   1.515       .  S
C52         C401   1.416       .  A
C52          H55   1.078       .  S
C56          C57   1.403       .  A
C56          C61   1.403       .  A
C56         C222   1.487       .  S
C57          C58   1.415       .  A
C57          H62   1.078       .  S
C58         C409   1.415       .  A
C59          C60   1.405       .  A
C59         C408   1.415       .  A
C59          H63   1.078       .  S
C60         C411   1.404       .  A
C60         C215   1.485       .  S
C61         C410   1.404       .  A
C61          H64   1.084       .  S
C65          C66   1.403       .  A
C65          C70   1.400       .  A
C65         C202   1.480       .  S
C66         C417   1.414       .  A
C66          H71   1.079       .  S
C67          C68   1.412       .  A
C67         C416   1.414   1_554  A
C68          C69   1.401       .  A
C68          H72   1.078       .  S
C69         C420   1.400   1_554  A
C69         C195   1.478       .  S
C70         C419   1.400       .  A
C70          H73   1.084       .  S
C74          C75   1.377       .  D
C74         C212   1.505       .  S
C74         C225   1.503       .  S
C75         C175   1.496       .  S
C75         C185   1.498       .  S
C76          C77   1.369       .  D
C76         C192   1.498       .  S
C76         C205   1.497       .  S
C77         C152   1.492       .  S
C77         C165   1.489       .  S
O78        Cr446   1.968       .  S
O78          C86   1.262       .  A
O79        Cr446   1.991       .  S
O79          C80   1.258       .  A
C80         C172   1.485       .  S
C80          O81   1.263       .  A
O81        Cr447   1.989       .  S
O82        Cr447   2.004       .  S
O82          C83   1.262       .  A
C83         C162   1.489       .  S
C83          O84   1.260       .  A
O84        Cr448   1.971       .  S
O85        Cr448   2.011       .  S
O85          C86   1.269       .  A
C86         C135   1.471       .  S
O87         Cr96   1.987       .  S
O87          C95   1.259       .  A
O88         Cr96   1.970       .  S
O88          C89   1.261       .  A
C89         C182   1.480       .  S
C89          O90   1.268       .  A
O90         Cr97   2.015       .  S
O91         Cr97   1.967       .  S
O91          C92   1.259       .  A
C92         C155   1.485       .  S
C92          O93   1.267       .  A
O93         Cr98   2.005   1_554  S
O94         Cr98   1.990   1_554  S
O94          C95   1.260       .  A
C95         C142   1.474       .  S
Cr96        O428   1.968   1_554  S
Cr96        O429   1.991   1_554  S
Cr96         O99   1.765   1_554  S
Cr97        O431   1.989   1_554  S
Cr97        O432   2.004   1_554  S
Cr97         O99   1.773   1_554  S
Cr98        O434   1.971       .  S
Cr98        O435   2.011       .  S
Cr98         O99   1.772       .  S
C100        C101   1.369       .  D
C100        C132   1.492       .  S
C100        C145   1.491       .  S
C101        C115   1.498       .  S
C101        C122   1.493       .  S
C102        C103   1.405       .  A
C102        C457   1.401       .  A
C102        C112   1.487       .  S
C103        C454   1.418       .  A
C103        H108   1.076       .  S
C104        C105   1.417   1_556  A
C104        C453   1.418       .  A
C105        C106   1.402       .  A
C105        H109   1.077       .  S
C106        C107   1.399   1_554  A
C106        C125   1.478       .  S
C107        C452   1.401       .  A
C107        H110   1.084   1_565  S
C111        C112   1.405       .  A
C111        C116   1.403   1_565  A
C111        H118   1.083       .  S
C112        C113   1.410       .  A
C113        C114   1.399   1_565  A
C113       Br120   1.920       .  S
C114        C115   1.404       .  A
C114        H119   1.079       .  S
C115        C116   1.412       .  A
C116       Br117   1.917       .  S
C121        C122   1.404   1_565  A
C121        C126   1.402       .  A
C121        H128   1.083       .  S
C122        C123   1.413       .  A
C123        C124   1.399       .  A
C123       Br130   1.914       .  S
C124        C125   1.400   1_545  A
C124        H129   1.084       .  S
C125        C126   1.407       .  A
C126       Br127   1.916       .  S
C131        C132   1.406       .  A
C131        C136   1.393       .  A
C131        H138   1.082       .  S
C132        C133   1.413       .  A
C133        C134   1.399       .  A
C133       Br140   1.916       .  S
C134        C135   1.402       .  A
C134        H139   1.084       .  S
C135        C136   1.405       .  A
C136       Br137   1.915       .  S
C141        C142   1.399       .  A
C141        C146   1.389       .  A
C141        H148   1.083       .  S
C142        C143   1.409       .  A
C143        C144   1.405       .  A
C143       Br150   1.917       .  S
C144        C145   1.409       .  A
C144        H149   1.083       .  S
C145        C146   1.408       .  A
C146       Br147   1.913       .  S
C151        C152   1.404       .  A
C151        C156   1.394       .  A
C151        H158   1.083       .  S
C152        C153   1.410       .  A
C153        C154   1.398       .  A
C153       Br160   1.918       .  S
C154        C155   1.409       .  A
C154        H159   1.083       .  S
C155        C156   1.415       .  A
C156       Br157   1.925       .  S
C161        C162   1.406       .  A
C161        C166   1.392       .  A
C161        H168   1.080       .  S
C162        C163   1.419       .  A
C163        C164   1.400       .  A
C163       Br170   1.921       .  S
C164        C165   1.402       .  A
C164        H169   1.084       .  S
C165        C166   1.404       .  A
C166       Br167   1.915       .  S
C171        C172   1.405       .  A
C171        C176   1.398       .  A
C171        H178   1.083       .  S
C172        C173   1.420       .  A
C173        C174   1.394       .  A
C173       Br180   1.925       .  S
C174        C175   1.401       .  A
C174        H179   1.083       .  S
C175        C176   1.411       .  A
C176       Br177   1.919       .  S
C181        C182   1.409       .  A
C181        C186   1.404       .  A
C181        H188   1.083       .  S
C182        C183   1.407       .  A
C183        C184   1.388       .  A
C183       Br190   1.917       .  S
C184        C185   1.405       .  A
C184        H189   1.082       .  S
C185        C186   1.412       .  A
C186       Br187   1.917       .  S
C191        C192   1.409       .  A
C191        C196   1.399       .  A
C191        H198   1.083       .  S
C192        C193   1.413       .  A
C193        C194   1.397       .  A
C193       Br200   1.919       .  S
C194        C195   1.401       .  A
C194        H199   1.084       .  S
C195        C196   1.406       .  A
C196       Br197   1.918       .  S
C201        C202   1.402       .  A
C201        C206   1.397       .  A
C201        H208   1.084       .  S
C202        C203   1.408       .  A
C203        C204   1.400       .  A
C203       Br210   1.918       .  S
C204        C205   1.408       .  A
C204        H209   1.083       .  S
C205        C206   1.411       .  A
C206       Br207   1.918       .  S
C211        C212   1.410       .  A
C211        C216   1.403       .  A
C211        H218   1.082       .  S
C212        C213   1.414       .  A
C213        C214   1.399       .  A
C213       Br220   1.917       .  S
C214        C215   1.402       .  A
C214        H219   1.084       .  S
C215        C216   1.408       .  A
C216       Br217   1.918       .  S
C221        C222   1.403       .  A
C221        C226   1.403       .  A
C221        H228   1.083       .  S
C222        C223   1.411       .  A
C223        C224   1.400       .  A
C223       Br230   1.920       .  S
C224        C225   1.404       .  A
C224        H229   1.083       .  S
C225        C226   1.415       .  A
C226       Br227   1.917       .  S
C231        C232   1.405       .  A
C231        C236   1.399       .  A
C231        H238   1.083       .  S
C232        C233   1.417       .  A
C233        C234   1.403       .  A
C233       Br240   1.918       .  S
C234        C235   1.402       .  A
C234        H239   1.083       .  S
C235        C236   1.411       .  A
C236       Br237   1.920       .  S
C241        C242   1.401       .  A
C241        C246   1.399       .  A
C241        H248   1.084       .  S
C242        C243   1.408       .  A
C243        C244   1.404       .  A
C243       Br250   1.916       .  S
C244        C245   1.408       .  A
C244        H249   1.083   1_655  S
C245        C246   1.410       .  A
C246       Br247   1.913       .  S
C251        C252   1.408       .  A
C251        C256   1.401       .  A
C251        H258   1.083       .  S
C252        C253   1.412       .  A
C253        C254   1.389       .  A
C253       Br260   1.926       .  S
C254        C255   1.406       .  A
C254        H259   1.082       .  S
C255        C256   1.412       .  A
C256       Br257   1.917       .  S
C261        C262   1.407       .  A
C261        C266   1.393       .  A
C261        H268   1.083       .  S
C262        C263   1.418       .  A
C263        C264   1.398       .  A
C263       Br270   1.922       .  S
C264        C265   1.401       .  A
C264        H269   1.084       .  S
C265        C266   1.404       .  A
C266       Br267   1.916       .  S
C271        C272   1.409       .  A
C271        C276   1.394       .  A
C271        H278   1.083       .  S
C272        C273   1.412       .  A
C273        C274   1.395       .  A
C273       Br280   1.923       .  S
C274        C275   1.407       .  A
C274        H279   1.083       .  S
C275        C276   1.410       .  A
C276       Br277   1.918       .  S
C281        C282   1.405       .  A
C281        C286   1.391       .  A
C281        H288   1.083       .  S
C282        C283   1.419       .  A
C283        C284   1.401       .  A
C283       Br290   1.921       .  S
C284        C285   1.402       .  A
C284        H289   1.083       .  S
C285        C286   1.408       .  A
C286       Br287   1.914       .  S
C291        C292   1.405       .  A
C291        C296   1.401       .  A
C291        H298   1.084       .  S
C292        C293   1.407       .  A
C293        C294   1.391       .  A
C293       Br300   1.917       .  S
C294        C295   1.408       .  A
C294        H299   1.083       .  S
C295        C296   1.413       .  A
C296       Br297   1.919       .  S
C301        C302   1.406       .  A
C301        C306   1.388       .  A
C301        H308   1.082       .  S
C302        C303   1.410       .  A
C303        C304   1.403       .  A
C303       Br310   1.916       .  S
C304        C305   1.408       .  A
C304        H309   1.083       .  S
C305        C306   1.410       .  A
C306       Br307   1.925       .  S
C311        C312   1.401       .  A
C311        C316   1.401       .  A
C311        H318   1.084       .  S
C312        C313   1.409       .  A
C313        C314   1.397       .  A
C313       Br320   1.920       .  S
C314        C315   1.405       .  A
C314        H319   1.084       .  S
C315        C316   1.417       .  A
C316       Br317   1.919       .  S
C321        C322   1.402       .  A
C321        C326   1.398       .  A
C321        H328   1.084       .  S
C322        C323   1.407       .  A
C323        C324   1.402       .  A
C323       Br330   1.917       .  S
C324        C325   1.409       .  A
C324        H329   1.083       .  S
C325        C326   1.410       .  A
C326       Br327   1.915       .  S
C331        C332   1.401       .  A
C331        C336   1.402       .  A
C331        H338   1.084       .  S
C332        C333   1.409       .  A
C333        C334   1.399       .  A
C333       Br340   1.919       .  S
C334        C335   1.406       .  A
C334        H339   1.083       .  S
C335        C336   1.418       .  A
C336       Br337   1.918       .  S
C341        C342   1.409       .  A
C341        C346   1.403       .  A
C341        H348   1.083       .  S
C342        C343   1.415       .  A
C343        C344   1.399       .  A
C343       Br350   1.918       .  S
C344        C345   1.404       .  A
C344        H349   1.083       .  S
C345        C346   1.411       .  A
C346       Br347   1.918       .  S
C351        C352   1.402       .  A
C351        C356   1.400   1_556  A
C351        C682   1.483       .  S
C352        H357   1.076       .  S
C353        C354   1.418       .  A
C353        C454   1.521       .  S
C354        C355   1.407       .  A
C354        H358   1.076       .  S
C355        C695   1.491       .  S
C356        H359   1.084       .  S
C360        C361   1.402       .  A
C360        C365   1.402       .  A
C360        C672   1.481       .  S
C361        H366   1.084       .  S
C362        C363   1.402       .  A
C362        C662   1.481       .  S
C363        H367   1.078       .  S
C364        C365   1.414       .  A
C364        C417   1.510       .  S
C365        H368   1.078       .  S
C369        C370   1.375       .  D
C369        C685   1.502       .  S
C369        C692   1.507       .  S
C370        C642   1.489       .  S
C370        C652   1.493       .  S
O371       Cr389   1.957   1_556  S
O371        C379   1.258       .  A
O372       Cr389   1.991   1_556  S
O372        C373   1.261       .  A
C373        C622   1.482       .  S
C373        O374   1.257       .  A
O374       Cr390   1.977   1_556  S
O375       Cr390   2.005   1_556  S
O375        C376   1.265       .  A
C376        C602   1.481       .  S
C376        O377   1.258       .  A
O377       Cr391   1.964       .  S
O378       Cr391   2.018       .  S
O378        C379   1.269       .  A
C379        C655   1.477       .  S
O380        C388   1.262       .  A
O381        C382   1.262       .  A
C382        C632   1.486       .  S
C382        O383   1.267       .  A
O384        C385   1.261       .  A
C385        C612   1.485       .  S
C385        O386   1.264       .  A
O387        C388   1.261       .  A
C388        C645   1.483       .  S
Cr389       O392   1.759       .  S
Cr390       O392   1.767       .  S
Cr391       O392   1.768   1_556  S
C393        C394   1.370       .  D
C393        C665   1.496       .  S
C393        C675   1.500       .  S
C394        C605   1.496       .  S
C394        C615   1.488       .  S
C395        C396   1.371   1_455  D
C395        C625   1.492       .  S
C395        C635   1.491       .  S
C396        C582   1.500       .  S
C396        C595   1.499       .  S
C397        C402   1.405       .  A
C397        C592   1.483       .  S
C398        C399   1.403   1_554  A
C398        H403   1.084   1_554  S
C399        C400   1.402       .  A
C399        C585   1.486       .  S
C400        C401   1.414   1_556  A
C400        H404   1.078       .  S
C401        C408   1.515       .  S
C402        H405   1.078       .  S
C406        C407   1.403       .  A
C406        C411   1.403   1_556  A
C406        C572   1.487       .  S
C407        C408   1.416   1_556  A
C407        H412   1.078       .  S
C409        C410   1.405       .  A
C409        H413   1.078       .  S
C410        C565   1.485       .  S
C411        H414   1.084       .  S
C415        C416   1.403       .  A
C415        C420   1.400       .  A
C415        C552   1.480       .  S
C416        H421   1.079       .  S
C417        C418   1.412       .  A
C418        C419   1.401       .  A
C418        H422   1.078       .  S
C419        C545   1.478       .  S
C420        H423   1.084       .  S
C424        C425   1.377       .  D
C424        C562   1.505       .  S
C424        C575   1.503       .  S
C425        C525   1.496       .  S
C425        C535   1.498       .  S
C426        C427   1.369       .  D
C426        C542   1.497       .  S
C426        C555   1.497       .  S
C427        C502   1.492       .  S
C427        C515   1.489       .  S
O428        C436   1.262       .  A
O429        C430   1.258       .  A
C430        C522   1.485       .  S
C430        O431   1.263       .  A
O432        C433   1.262       .  A
C433        C512   1.489       .  S
C433        O434   1.260       .  A
O435        C436   1.269       .  A
C436        C485   1.471       .  S
O437       Cr446   1.987       .  S
O437        C445   1.259       .  A
O438       Cr446   1.970       .  S
O438        C439   1.261       .  A
C439        C532   1.480       .  S
C439        O440   1.268       .  A
O440       Cr447   2.015       .  S
O441       Cr447   1.967       .  S
O441        C442   1.259       .  A
C442        C505   1.485       .  S
C442        O443   1.267       .  A
O443       Cr448   2.005       .  S
O444       Cr448   1.990       .  S
O444        C445   1.260       .  A
C445        C492   1.474       .  S
Cr446       O449   1.765       .  S
Cr447       O449   1.773       .  S
Cr448       O449   1.772       .  S
C450        C451   1.369       .  D
C450        C482   1.492       .  S
C450        C495   1.491       .  S
C451        C465   1.498       .  S
C451        C472   1.493       .  S
C452        C453   1.405       .  A
C452        C462   1.487       .  S
C453        H458   1.076       .  S
C454        C455   1.417       .  A
C455        C456   1.402       .  A
C455        H459   1.077       .  S
C456        C457   1.399       .  A
C456        C475   1.478       .  S
C457        H460   1.084   1_565  S
C461        C462   1.405       .  A
C461        C466   1.403   1_565  A
C461        H468   1.083       .  S
C462        C463   1.410       .  A
C463        C464   1.399   1_565  A
C463       Br470   1.920       .  S
C464        C465   1.404       .  A
C464        H469   1.079       .  S
C465        C466   1.412       .  A
C466       Br467   1.917       .  S
C471        C472   1.404   1_565  A
C471        C476   1.402       .  A
C471        H478   1.083       .  S
C472        C473   1.413       .  A
C473        C474   1.399       .  A
C473       Br480   1.914       .  S
C474        C475   1.400   1_545  A
C474        H479   1.084       .  S
C475        C476   1.407       .  A
C476       Br477   1.916       .  S
C481        C482   1.406       .  A
C481        C486   1.393       .  A
C481        H488   1.082       .  S
C482        C483   1.413       .  A
C483        C484   1.399       .  A
C483       Br490   1.916       .  S
C484        C485   1.402       .  A
C484        H489   1.084       .  S
C485        C486   1.405       .  A
C486       Br487   1.915       .  S
C491        C492   1.399       .  A
C491        C496   1.389       .  A
C491        H498   1.083       .  S
C492        C493   1.409       .  A
C493        C494   1.405       .  A
C493       Br500   1.917       .  S
C494        C495   1.409       .  A
C494        H499   1.083       .  S
C495        C496   1.408       .  A
C496       Br497   1.913       .  S
C501        C502   1.404       .  A
C501        C506   1.394       .  A
C501        H508   1.083       .  S
C502        C503   1.410       .  A
C503        C504   1.398       .  A
C503       Br510   1.918       .  S
C504        C505   1.409       .  A
C504        H509   1.083       .  S
C505        C506   1.415       .  A
C506       Br507   1.925       .  S
C511        C512   1.406       .  A
C511        C516   1.392       .  A
C511        H518   1.080       .  S
C512        C513   1.419       .  A
C513        C514   1.400       .  A
C513       Br520   1.921       .  S
C514        C515   1.402       .  A
C514        H519   1.084       .  S
C515        C516   1.404       .  A
C516       Br517   1.915       .  S
C521        C522   1.405       .  A
C521        C526   1.398       .  A
C521        H528   1.083       .  S
C522        C523   1.420       .  A
C523        C524   1.394       .  A
C523       Br530   1.925       .  S
C524        C525   1.401       .  A
C524        H529   1.083       .  S
C525        C526   1.411       .  A
C526       Br527   1.919       .  S
C531        C532   1.409       .  A
C531        C536   1.404       .  A
C531        H538   1.083       .  S
C532        C533   1.407       .  A
C533        C534   1.388       .  A
C533       Br540   1.917       .  S
C534        C535   1.405       .  A
C534        H539   1.082       .  S
C535        C536   1.412       .  A
C536       Br537   1.917       .  S
C541        C542   1.409       .  A
C541        C546   1.399       .  A
C541        H548   1.083       .  S
C542        C543   1.413       .  A
C543        C544   1.397       .  A
C543       Br550   1.919       .  S
C544        C545   1.401       .  A
C544        H549   1.084       .  S
C545        C546   1.406       .  A
C546       Br547   1.918       .  S
C551        C552   1.402       .  A
C551        C556   1.397       .  A
C551        H558   1.084       .  S
C552        C553   1.408       .  A
C553        C554   1.400       .  A
C553       Br560   1.918       .  S
C554        C555   1.408       .  A
C554        H559   1.083       .  S
C555        C556   1.411       .  A
C556       Br557   1.918       .  S
C561        C562   1.410       .  A
C561        C566   1.403       .  A
C561        H568   1.082       .  S
C562        C563   1.414       .  A
C563        C564   1.399       .  A
C563       Br570   1.917       .  S
C564        C565   1.402       .  A
C564        H569   1.084       .  S
C565        C566   1.408       .  A
C566       Br567   1.918       .  S
C571        C572   1.403       .  A
C571        C576   1.403       .  A
C571        H578   1.083       .  S
C572        C573   1.411       .  A
C573        C574   1.400       .  A
C573       Br580   1.920       .  S
C574        C575   1.404       .  A
C574        H579   1.083       .  S
C575        C576   1.415       .  A
C576       Br577   1.917       .  S
C581        C582   1.405       .  A
C581        C586   1.399       .  A
C581        H588   1.083       .  S
C582        C583   1.417       .  A
C583        C584   1.403       .  A
C583       Br590   1.918       .  S
C584        C585   1.402       .  A
C584        H589   1.083       .  S
C585        C586   1.411       .  A
C586       Br587   1.920       .  S
C591        C592   1.401       .  A
C591        C596   1.399       .  A
C591        H598   1.084       .  S
C592        C593   1.408       .  A
C593        C594   1.404       .  A
C593       Br600   1.916       .  S
C594        C595   1.408       .  A
C594        H599   1.083   1_655  S
C595        C596   1.410       .  A
C596       Br597   1.913       .  S
C601        C602   1.408       .  A
C601        C606   1.401       .  A
C601        H608   1.083       .  S
C602        C603   1.412       .  A
C603        C604   1.389       .  A
C603       Br610   1.926       .  S
C604        C605   1.406       .  A
C604        H609   1.082       .  S
C605        C606   1.412       .  A
C606       Br607   1.917       .  S
C611        C612   1.407       .  A
C611        C616   1.393       .  A
C611        H618   1.083       .  S
C612        C613   1.418       .  A
C613        C614   1.398       .  A
C613       Br620   1.922       .  S
C614        C615   1.401       .  A
C614        H619   1.084       .  S
C615        C616   1.404       .  A
C616       Br617   1.916       .  S
C621        C622   1.409       .  A
C621        C626   1.394       .  A
C621        H628   1.083       .  S
C622        C623   1.412       .  A
C623        C624   1.395       .  A
C623       Br630   1.923       .  S
C624        C625   1.407       .  A
C624        H629   1.083       .  S
C625        C626   1.410       .  A
C626       Br627   1.918       .  S
C631        C632   1.405       .  A
C631        C636   1.391       .  A
C631        H638   1.083       .  S
C632        C633   1.419       .  A
C633        C634   1.401       .  A
C633       Br640   1.921       .  S
C634        C635   1.402       .  A
C634        H639   1.083       .  S
C635        C636   1.408       .  A
C636       Br637   1.914       .  S
C641        C642   1.405       .  A
C641        C646   1.401       .  A
C641        H648   1.084       .  S
C642        C643   1.407       .  A
C643        C644   1.391       .  A
C643       Br650   1.917       .  S
C644        C645   1.408       .  A
C644        H649   1.083       .  S
C645        C646   1.413       .  A
C646       Br647   1.919       .  S
C651        C652   1.406       .  A
C651        C656   1.388       .  A
C651        H658   1.082       .  S
C652        C653   1.410       .  A
C653        C654   1.403       .  A
C653       Br660   1.916       .  S
C654        C655   1.408       .  A
C654        H659   1.083       .  S
C655        C656   1.410       .  A
C656       Br657   1.925       .  S
C661        C662   1.401       .  A
C661        C666   1.401       .  A
C661        H668   1.084       .  S
C662        C663   1.409       .  A
C663        C664   1.397       .  A
C663       Br670   1.920       .  S
C664        C665   1.405       .  A
C664        H669   1.084       .  S
C665        C666   1.417       .  A
C666       Br667   1.919       .  S
C671        C672   1.402       .  A
C671        C676   1.398       .  A
C671        H678   1.084       .  S
C672        C673   1.407       .  A
C673        C674   1.402       .  A
C673       Br680   1.917       .  S
C674        C675   1.409       .  A
C674        H679   1.083       .  S
C675        C676   1.410       .  A
C676       Br677   1.915       .  S
C681        C682   1.401       .  A
C681        C686   1.402       .  A
C681        H688   1.084       .  S
C682        C683   1.409       .  A
C683        C684   1.399       .  A
C683       Br690   1.919       .  S
C684        C685   1.406       .  A
C684        H689   1.083       .  S
C685        C686   1.418       .  A
C686       Br687   1.918       .  S
C691        C692   1.409       .  A
C691        C696   1.403       .  A
C691        H698   1.083       .  S
C692        C693   1.415       .  A
C693        C694   1.399       .  A
C693       Br700   1.918       .  S
C694        C695   1.404       .  A
C694        H699   1.083       .  S
C695        C696   1.411       .  A
C696       Br697   1.918       .  S
