geometry optimzed in LAMMPS
_audit_creation_date              2020-12-01 
_audit_creation_method            'lammps2cif' 
_symmetry_space_group_name_H-M    'P1' 
_symmetry_Int_Tables_number       1 
_symmetry_cell_setting            triclinic 
loop_ 
_symmetry_equiv_pos_as_xyz 
  x,y,z 
_cell_length_a                    40.6817728 
_cell_length_b                    41.0782564028537 
_cell_length_c                    36.76950236922808 
_cell_angle_alpha                 89.98768432396105 
_cell_angle_beta                  90.22443579206187 
_cell_angle_gamma                 90.06681735925802 
loop_ 
_atom_site_label 
_atom_site_type_symbol 
_atom_site_fract_x 
_atom_site_fract_y 
_atom_site_fract_z 
_atom_site_charge 
C1          C  0.27603218  0.24096314  0.87491157     0.80200
N2          N  0.25109530  0.25619514  0.89292789    -0.78100
C3          C  0.22778488  0.27277958  0.87359771     0.82700
N4          N  0.22955470  0.27369044  0.83672994    -0.78000
C5          C  0.25427367  0.25882664  0.81867182     0.82800
N6          N  0.27745882  0.24260132  0.83800863    -0.79700
Zn7        Zn  0.99126791  0.46584983  0.91879614     1.49700
Zn8        Zn  0.03863717  0.99859213  0.97861364     1.49400
Zn9        Zn  0.00390768  0.04328708  0.91793682     1.49100
Zn10       Zn  0.46049783  0.01096271  0.98139405     1.49500
O11         O  0.99857159  0.00465062  0.94917430    -1.84100
O12         O  0.03024789  0.43502498  0.92326916    -0.74800
O13         O  0.07027084  0.03558292  0.96943402    -0.74600
O14         O  0.99886926  0.03113079  0.86455861    -0.74100
O15         O  0.06257437  0.45647013  0.96580770    -0.74800
O16         O  0.98646392  0.47845388  0.86553718    -0.74400
O17         O  0.04758387  0.06685248  0.92699768    -0.74900
O18         O  0.43568958  0.05279157  0.96957483    -0.74300
O19         O  0.02827654  0.99980066  0.03273255    -0.75100
O20         O  0.46756189  0.07539156  0.92770948    -0.74500
O21         O  0.47525906  0.01267691  0.03414672    -0.75000
O22         O  0.42841816  0.47329179  0.97646597    -0.74900
O23         O  0.44956393  0.44163301  0.93359294    -0.74700
C24         C  0.05637838  0.43414387  0.94263310     0.77100
C25         C  0.07109523  0.06066592  0.94901782     0.77600
C26         C  0.99071617  0.00496940  0.84807508     0.76600
C27         C  0.44202105  0.07601987  0.94766013     0.77000
C28         C  0.00236485  0.00692869  0.05049844     0.78100
C29         C  0.42713457  0.44773434  0.95678232     0.77200
C30         C  0.24194233  0.22187359  0.01883023     0.80200
N31         N  0.24570482  0.21833206  0.05539579    -0.78100
C32         C  0.26145890  0.24118676  0.07548666     0.82700
N33         N  0.27366611  0.26782932  0.05851836    -0.78000
C34         C  0.27058064  0.27183348  0.02198707     0.82800
N35         N  0.25447569  0.24877046  0.00193269    -0.79700
C36         C  0.02947287  0.48363737  0.37760964     0.80200
N37         N  0.02966375  0.48755019  0.34089888    -0.78100
C38         C  0.50507176  0.00349734  0.32345900     0.82700
N39         N  0.47993575  0.01580396  0.34332317    -0.78000
C40         C  0.47949226  0.01265443  0.38015724     0.82800
N41         N  0.00429256  0.49640172  0.39741872    -0.79700
Zn42       Zn  0.25625558  0.27796781  0.41479934     1.49700
Zn43       Zn  0.28990521  0.23632582  0.47709545     1.49400
Zn44       Zn  0.21110536  0.24864508  0.47719385     1.49100
Zn45       Zn  0.24327804  0.19978310  0.41924717     1.49500
O46         O  0.25002707  0.24049901  0.44705607    -1.84100
O47         O  0.29801096  0.30349977  0.42590207    -0.74800
O48         O  0.27793089  0.23970863  0.52995172    -0.74600
O49         O  0.18754494  0.29060768  0.46318556    -0.74100
O50         O  0.32220343  0.27318966  0.46799272    -0.74800
O51         O  0.21851535  0.30996524  0.41864060    -0.74400
O52         O  0.22470118  0.25207519  0.52999304    -0.74900
O53         O  0.19902616  0.17804182  0.43113106    -0.74300
O54         O  0.31336866  0.19337285  0.46848355    -0.75100
O55         O  0.17818412  0.21165033  0.47230125    -0.74500
O56         O  0.27987295  0.16743931  0.43044918    -0.75000
O57         O  0.24636185  0.20914798  0.36491378    -0.74900
O58         O  0.25876325  0.26192325  0.36341438    -0.74700
C59         C  0.32182485  0.29840873  0.44777212     0.77100
C60         C  0.25172552  0.24723153  0.54684632     0.77600
C61         C  0.19344572  0.31223437  0.43919444     0.76600
C62         C  0.17618793  0.18571485  0.45329325     0.77000
C63         C  0.30622029  0.16840510  0.44940246     0.78100
C64         C  0.25396021  0.23485081  0.34728149     0.77200
C65         C  0.47009689  0.47877102  0.51966512     0.80200
N66         N  0.98698903  0.50274638  0.50204481    -0.78100
C67         C  0.99960286  0.02833467  0.52132173     0.82700
N68         N  0.99494725  0.02968135  0.55793651    -0.78000
C69         C  0.97847793  0.00578141  0.57571675     0.82800
N70         N  0.46640220  0.48031437  0.55636516    -0.79700
C71         C  0.04586734  0.13908178  0.52350331    -0.17800
C72         C  0.07089918  0.16093453  0.51438729    -0.20000
C73         C  0.09525040  0.15211527  0.48932420     0.20700
C74         C  0.09365287  0.12140759  0.47221541    -0.02900
C75         C  0.06815358  0.09935122  0.48124707    -0.06000
C76         C  0.04464637  0.10804946  0.50761266     0.20900
C77         C  0.06691420  0.06821675  0.46496580     0.19100
C78         C  0.09067967  0.05988379  0.43895994    -0.17500
C79         C  0.11603419  0.08169044  0.43014165    -0.19700
C80         C  0.11808662  0.11234497  0.44703289     0.20600
C81         C  0.14454549  0.13369887  0.44000505    -0.32700
C82         C  0.14693771  0.16400832  0.45796984     0.01300
C83         C  0.12163720  0.17314654  0.48197757    -0.24000
C84         C  0.02118101  0.08515193  0.51882820    -0.28600
C85         C  0.02058269  0.05356900  0.50402969     0.07000
C86         C  0.04286779  0.04558153  0.47617856    -0.27300
H87         H  0.02785718  0.14620696  0.54360811     0.11700
H88         H  0.07163584  0.18450439  0.52760337     0.12800
H89         H  0.09010489  0.03617895  0.42602147     0.11900
H90         H  0.13440644  0.07431899  0.41056599     0.11100
H91         H  0.16365705  0.12634854  0.42128875     0.16500
H92         H  0.12284350  0.19642145  0.49581287     0.12400
H93         H  0.00393576  0.09158278  0.54005433     0.15300
H94         H  0.04270897  0.02124330  0.46476781     0.15100
C95         C  0.38962507  0.43360358  0.43198638    -0.17800
C96         C  0.36811284  0.40822466  0.42251656    -0.20000
C97         C  0.37043192  0.37769612  0.43963259     0.20700
C98         C  0.39554488  0.37237198  0.46551948    -0.02900
C99         C  0.41716470  0.39800736  0.47519519    -0.06000
C100        C  0.41383565  0.42899084  0.45883927     0.20900
C101        C  0.44102728  0.39303994  0.50257424     0.19100
C102        C  0.44427956  0.36222208  0.51864290    -0.17500
C103        C  0.42310105  0.33683636  0.50885905    -0.19700
C104        C  0.39818032  0.34186697  0.48297770     0.20600
C105        C  0.37504618  0.31735236  0.47550165    -0.32700
C106        C  0.34882717  0.32287542  0.45115021     0.01300
C107        C  0.34731667  0.35288906  0.43248868    -0.24000
C108        C  0.43351054  0.45512324  0.47110500    -0.28600
C109        C  0.45566937  0.45064716  0.50015661     0.07000
C110        C  0.45999280  0.41936221  0.51486991    -0.27300
H111        H  0.38669930  0.45713006  0.41903490     0.11700
H112        H  0.34911277  0.41274073  0.40242134     0.12800
H113        H  0.46264236  0.35798805  0.53953060     0.11900
H114        H  0.42560284  0.31351095  0.52235582     0.11100
H115        H  0.37675368  0.29435969  0.48985984     0.16500
H116        H  0.32740588  0.35747354  0.41350916     0.12400
H117        H  0.42986823  0.47931009  0.45999913     0.15300
H118        H  0.47709907  0.41589840  0.53723506     0.15100
C119        C  0.14168680  0.44047688  0.37087207    -0.17800
C120        C  0.16434443  0.41585929  0.37863382    -0.20000
C121        C  0.15678513  0.39145176  0.40397023     0.20700
C122        C  0.12655418  0.39251282  0.42264332    -0.02900
C123        C  0.10367177  0.41752573  0.41491495    -0.06000
C124        C  0.11111005  0.44116838  0.38836838     0.20900
C125        C  0.07292459  0.41815410  0.43267453     0.19100
C126        C  0.06585250  0.39424803  0.45883900    -0.17500
C127        C  0.08854516  0.36944868  0.46648834    -0.19700
C128        C  0.11876724  0.36805490  0.44815086     0.20600
C129        C  0.14095675  0.34226221  0.45414766    -0.32700
C130        C  0.17076427  0.34047031  0.43473406     0.01300
C131        C  0.17861689  0.36559974  0.41018049    -0.24000
C132        C  0.08731284  0.46416770  0.37847126    -0.28600
C133        C  0.05597833  0.46395493  0.39450569     0.07000
C134        C  0.04932205  0.44168892  0.42266462    -0.27300
H135        H  0.14779776  0.45858161  0.35053772     0.11700
H136        H  0.18751995  0.41552145  0.36422795     0.12800
H137        H  0.04246101  0.39430961  0.47282866     0.11900
H138        H  0.08217577  0.35098021  0.48630283     0.11100
H139        H  0.13464589  0.32321846  0.47330772     0.16500
H140        H  0.20155012  0.36479710  0.39530428     0.12400
H141        H  0.09268395  0.48145864  0.35699150     0.15300
H142        H  0.02516390  0.44128272  0.43500686     0.15100
C143        C  0.33776343  0.06141088  0.39886638    -0.17800
C144        C  0.36222979  0.03909149  0.38940485    -0.20000
C145        C  0.39456449  0.04318633  0.40203261     0.20700
C146        C  0.40197608  0.06904009  0.42598909    -0.02900
C147        C  0.37727811  0.09174830  0.43532831    -0.06000
C148        C  0.34523212  0.08828872  0.42098051     0.20900
C149        C  0.38507104  0.11876907  0.45744181     0.19100
C150        C  0.41711610  0.12197973  0.47140604    -0.17500
C151        C  0.44157259  0.09947151  0.46218753    -0.19700
C152        C  0.43446407  0.07331196  0.43886644     0.20600
C153        C  0.45954956  0.05261126  0.42634564    -0.32700
C154        C  0.45259359  0.02832954  0.40051712     0.01300
C155        C  0.41994347  0.02310662  0.38937082    -0.24000
C156        C  0.32165219  0.11252949  0.42746973    -0.28600
C157        C  0.32966236  0.14055517  0.44774091     0.07000
C158        C  0.36117898  0.14287707  0.46370744    -0.27300
H159        H  0.31321224  0.05823356  0.38786451     0.11700
H160        H  0.35608405  0.01919759  0.37127472     0.12800
H161        H  0.42353216  0.14246371  0.48857825     0.11900
H162        H  0.46633138  0.10317767  0.47232699     0.11100
H163        H  0.48480779  0.05707224  0.43433311     0.16500
H164        H  0.41462298  0.00442391  0.36936375     0.12400
H165        H  0.29743213  0.11019098  0.41533555     0.15300
H166        H  0.36766858  0.16417357  0.47958689     0.15100
C167        C  0.28776314  0.28923174  0.19510638    -0.17800
C168        C  0.28633829  0.28844659  0.23303307    -0.20000
C169        C  0.27357979  0.26111967  0.25100727     0.20700
C170        C  0.26281431  0.23398923  0.23070671    -0.02900
C171        C  0.26415657  0.23483109  0.19234285    -0.06000
C172        C  0.27639467  0.26273608  0.17454056     0.20900
C173        C  0.25262399  0.20810980  0.17183472     0.19100
C174        C  0.24069400  0.18042208  0.18995607    -0.17500
C175        C  0.23950320  0.17953008  0.22803262    -0.19700
C176        C  0.25012779  0.20633614  0.24867758     0.20600
C177        C  0.24776010  0.20629088  0.28685625    -0.32700
C178        C  0.25760186  0.23372808  0.30716417     0.00700
C179        C  0.27090961  0.26079722  0.28891325    -0.24000
C180        C  0.27636518  0.26406758  0.13648726    -0.28600
C181        C  0.26388117  0.23806067  0.11568286     0.07000
C182        C  0.25255619  0.20987276  0.13363572    -0.27300
H183        H  0.29732430  0.31079352  0.18182899     0.11700
H184        H  0.29484013  0.30939812  0.24830194     0.12800
H185        H  0.23188848  0.15960828  0.17466745     0.11900
H186        H  0.22982317  0.15802377  0.24132298     0.11100
H187        H  0.23765765  0.18521765  0.30063798     0.16500
H188        H  0.27899976  0.28191529  0.30419548     0.12400
H189        H  0.28529441  0.28586736  0.12313970     0.15300
H190        H  0.24312490  0.18953838  0.11797337     0.15100
C191        C  0.34408649  0.32221009  0.93084434    -0.17800
C192        C  0.36706911  0.34656028  0.92248957    -0.20000
C193        C  0.37062319  0.37404222  0.94495506     0.20700
C194        C  0.34983166  0.37761140  0.97530292    -0.02900
C195        C  0.32674890  0.35298705  0.98382870    -0.06000
C196        C  0.32426986  0.32480839  0.96189688     0.20900
C197        C  0.30725572  0.35591246  0.01527392     0.19100
C198        C  0.30972853  0.38396660  0.03689176    -0.17500
C199        C  0.33232565  0.40841890  0.02827859    -0.19700
C200        C  0.35296525  0.40516086  0.99801376     0.20600
C201        C  0.37741362  0.42842152  0.99089269    -0.32700
C202        C  0.39935151  0.42442154  0.96169154     0.01300
C203        C  0.39526046  0.39743380  0.93834464    -0.24000
C204        C  0.30341051  0.29907583  0.97255310    -0.28600
C205        C  0.28580026  0.30103467  0.00534324     0.07000
C206        C  0.28693686  0.33002732  0.02569960    -0.27300
H207        H  0.34247331  0.30089190  0.91356289     0.11700
H208        H  0.38261481  0.34351531  0.89888739     0.12800
H209        H  0.29477126  0.38661827  0.06102780     0.11900
H210        H  0.33427172  0.42949666  0.04588175     0.11100
H211        H  0.38005596  0.44911231  0.00897550     0.16500
H212        H  0.41170020  0.39421118  0.91551425     0.12400
H213        H  0.30275359  0.27674643  0.95684668     0.15300
H214        H  0.27316027  0.33178607  0.05081931     0.15100
C215        C  0.17910495  0.08661527  0.00297180    -0.17800
C216        C  0.20353769  0.10910318  0.01214443    -0.20000
C217        C  0.20203215  0.14111148  0.99897257     0.20700
C218        C  0.17630714  0.15034123  0.97530801    -0.02900
C219        C  0.15145277  0.12760381  0.96619457    -0.06000
C220        C  0.15270368  0.09577826  0.98057045     0.20900
C221        C  0.12482837  0.13700878  0.94382758     0.19100
C222        C  0.12394241  0.16887540  0.92987527    -0.17500
C223        C  0.14864669  0.19141945  0.93883780    -0.19700
C224        C  0.17469681  0.18258939  0.96200978     0.20600
C225        C  0.19818744  0.20569985  0.97363915    -0.32700
C226        C  0.22255487  0.19694389  0.99910660     0.01300
C227        C  0.22489488  0.16439655  0.01059755    -0.24000
C228        C  0.12704115  0.07391084  0.97338564    -0.28600
C229        C  0.09967681  0.08325103  0.95228729     0.07000
C230        C  0.09913350  0.11471830  0.93684951    -0.27300
H231        H  0.18046578  0.06221993  0.01411104     0.11700
H232        H  0.22321945  0.10166053  0.03024063     0.12800
H233        H  0.10379377  0.17656669  0.91256859     0.11900
H234        H  0.14695916  0.21601045  0.92829343     0.11100
H235        H  0.19611502  0.23084657  0.96494002     0.16500
H236        H  0.24374805  0.15753089  0.03006672     0.12400
H237        H  0.12800838  0.04974620  0.98521154     0.15300
H238        H  0.07824394  0.12225152  0.92053915     0.15100
C239        C  0.98838279  0.06475551  0.73087902    -0.17800
C240        C  0.98636150  0.06495819  0.69286168    -0.20000
C241        C  0.98076590  0.03597100  0.67358747     0.20700
C242        C  0.97615220  0.50663795  0.69291424    -0.02900
C243        C  0.97838653  0.50640000  0.73133124    -0.06000
C244        C  0.98496177  0.03553904  0.75033354     0.20900
C245        C  0.47475758  0.47691550  0.75061776     0.19100
C246        C  0.46803232  0.44811278  0.73139394    -0.17500
C247        C  0.46569575  0.44836678  0.69337713    -0.19700
C248        C  0.47012911  0.47741346  0.67384653     0.20600
C249        C  0.46956654  0.47757101  0.63560973    -0.32700
C250        C  0.97561373  0.00646598  0.61605065     0.01300
C251        C  0.98057640  0.03567926  0.63536173    -0.24000
C252        C  0.98859192  0.03490829  0.78835571    -0.28600
C253        C  0.98588504  0.00548215  0.80785047     0.07000
C254        C  0.47846586  0.47664686  0.78867402    -0.27300
H255        H  0.99318670  0.08739943  0.74503996     0.11700
H256        H  0.98969862  0.08775010  0.67849023     0.12800
H257        H  0.46499753  0.42526871  0.74574213     0.11900
H258        H  0.46094935  0.42571143  0.67920422     0.11100
H259        H  0.46567378  0.45490945  0.62111218     0.16500
H260        H  0.98484067  0.05815237  0.62064076     0.12400
H261        H  0.99391035  0.05735770  0.80270404     0.15300
H262        H  0.47600059  0.45385352  0.80327773     0.15100
C263        C  0.06186211  0.49143664  0.16738371    -0.17800
C264        C  0.06218792  0.49100169  0.20546096    -0.20000
C265        C  0.03406180  0.49975967  0.22516981     0.20700
C266        C  0.00550233  0.00963343  0.20631882    -0.02900
C267        C  0.00512658  0.50994497  0.16784708    -0.06000
C268        C  0.03336357  0.50056239  0.14829594     0.20900
C269        C  0.47634679  0.01918175  0.14899658     0.19100
C270        C  0.44846152  0.02864240  0.16871680    -0.17500
C271        C  0.44886689  0.02844040  0.20678842    -0.19700
C272        C  0.47715494  0.01870480  0.22586119     0.20600
C273        C  0.97737919  0.01737050  0.26406610    -0.32700
C274        C  0.50548821  0.00671723  0.28312560     0.01300
C275        C  0.53385743  0.49832836  0.26333604    -0.24000
C276        C  0.03248594  0.50003430  0.11005842    -0.28600
C277        C  0.00363071  0.00854456  0.09096828     0.07000
C278        C  0.47578269  0.01840773  0.11080270    -0.27300
H279        H  0.08380650  0.48428243  0.15285634     0.11700
H280        H  0.08439453  0.48349629  0.21951182     0.12800
H281        H  0.42618372  0.03593753  0.15467276     0.11900
H282        H  0.42691351  0.03556676  0.22131877     0.11100
H283        H  0.95538757  0.02394836  0.27887196     0.16500
H284        H  0.55580429  0.49037818  0.27759471     0.12400
H285        H  0.05415838  0.49254849  0.09521492     0.15300
H286        H  0.45347220  0.02528044  0.09653940     0.15100
C287        C  0.20195631  0.28457562  0.70044584    -0.17800
C288        C  0.20135564  0.28257029  0.66247885    -0.20000
C289        C  0.22750662  0.26814331  0.64367525     0.20700
C290        C  0.25483948  0.25616672  0.66327323    -0.02900
C291        C  0.25537695  0.25804627  0.70160509    -0.06000
C292        C  0.22868793  0.27209042  0.72024927     0.20900
C293        C  0.28236277  0.24540115  0.72125624     0.19100
C294        C  0.30887446  0.23168045  0.70238598    -0.17500
C295        C  0.30843726  0.22999042  0.66439288    -0.19700
C296        C  0.28141529  0.24188623  0.64463760     0.20600
C297        C  0.28034730  0.23937042  0.60662853    -0.32700
C298        C  0.25286446  0.25058796  0.58692756     0.01300
C299        C  0.22664326  0.26516874  0.60568503    -0.24000
C300        C  0.22888622  0.27290401  0.75837563    -0.28600
C301        C  0.25528532  0.25956184  0.77829950     0.07000
C302        C  0.28213368  0.24621618  0.75941429    -0.27300
H303        H  0.18132740  0.29554050  0.71434912     0.11700
H304        H  0.18026401  0.29205558  0.64782750     0.12800
H305        H  0.32985188  0.22197318  0.71704340     0.11900
H306        H  0.32907939  0.21904819  0.65047939     0.11100
H307        H  0.30073148  0.22818756  0.59245590     0.16500
H308        H  0.20552257  0.27423572  0.59073306     0.12400
H309        H  0.20808471  0.28335023  0.77248774     0.15300
H310        H  0.30274533  0.23609403  0.77436953     0.15100
C311        C  0.33197588  0.12623612  0.96529243    -0.17800
C312        C  0.30864761  0.14986906  0.95559602    -0.20000
C313        C  0.31699202  0.17536303  0.93186780     0.20700
C314        C  0.34948370  0.17741554  0.91856965    -0.02900
C315        C  0.37302110  0.15365942  0.92845963    -0.06000
C316        C  0.36412665  0.12763972  0.95150199     0.20900
C317        C  0.40514099  0.15537668  0.91422945     0.19100
C318        C  0.41376472  0.18113850  0.89109602    -0.17500
C319        C  0.39045535  0.20444779  0.88108869    -0.19700
C320        C  0.35819437  0.20250824  0.89422681     0.20600
C321        C  0.33420364  0.22442502  0.88216168    -0.32700
C322        C  0.30154840  0.22189459  0.89410208     0.01300
C323        C  0.29320959  0.19796921  0.91988866    -0.24000
C324        C  0.38718109  0.10296429  0.95922668    -0.28600
C325        C  0.41889715  0.10388610  0.94386739     0.07000
C326        C  0.42780755  0.13072267  0.92221279    -0.27300
H327        H  0.32466838  0.10648824  0.98307108     0.11700
H328        H  0.28388150  0.14779460  0.96603516     0.12800
H329        H  0.43835490  0.18283759  0.88004278     0.11900
H330        H  0.39750443  0.22366004  0.86246694     0.11100
H331        H  0.34064261  0.24285119  0.86227157     0.16500
H332        H  0.26793136  0.19568645  0.92875885     0.12400
H333        H  0.38000771  0.08247124  0.97600697     0.15300
H334        H  0.45217480  0.13195606  0.91046414     0.15100
C335        C  0.16314328  0.37908787  0.96921151    -0.17800
C336        C  0.18687899  0.35559122  0.96044820    -0.20000
C337        C  0.18127627  0.33328472  0.93212613     0.20700
C338        C  0.15100507  0.33427149  0.91312399    -0.02900
C339        C  0.12705327  0.35790389  0.92202727    -0.06000
C340        C  0.13327584  0.38072519  0.94989027     0.20900
C341        C  0.09724902  0.35921380  0.90229606     0.19100
C342        C  0.09132996  0.33664461  0.87440099    -0.17500
C343        C  0.11504418  0.31346192  0.86544608    -0.19700
C344        C  0.14504989  0.31236535  0.88431684     0.20600
C345        C  0.16970515  0.29068421  0.87370660    -0.32700
C346        C  0.20047935  0.29049131  0.89121550     0.01300
C347        C  0.20581533  0.31104166  0.92130768    -0.24000
C348        C  0.10985979  0.40515193  0.95729111    -0.28600
C349        C  0.08028193  0.40702900  0.93711507     0.07000
C350        C  0.07413498  0.38350827  0.91007959    -0.27300
H351        H  0.16836926  0.39631315  0.99078159     0.11700
H352        H  0.20990219  0.35527870  0.97538368     0.12800
H353        H  0.06855559  0.33728990  0.85903744     0.11900
H354        H  0.11014592  0.29674994  0.84327809     0.11100
H355        H  0.16547462  0.27480863  0.85058202     0.16500
H356        H  0.22963928  0.31121964  0.93464766     0.12400
H357        H  0.11496683  0.42302815  0.97824080     0.15300
H358        H  0.05158101  0.38450761  0.89432771     0.15100
C359        C  0.27603156  0.74096321  0.87491173     0.80200
N360        N  0.25109467  0.75619525  0.89292798    -0.78100
C361        C  0.22778423  0.77277958  0.87359772     0.82700
N362        N  0.22955404  0.77369029  0.83672995    -0.78000
C363        C  0.25427301  0.75882642  0.81867190     0.82800
N364        N  0.27745818  0.74260122  0.83800878    -0.79700
Zn365      Zn  0.99126772  0.96585032  0.91879600     1.49700
Zn366      Zn  0.03863719  0.49859164  0.97861386     1.49400
Zn367      Zn  0.00390771  0.54328665  0.91793708     1.49100
Zn368      Zn  0.46049777  0.51096318  0.98139404     1.49500
O369        O  0.99857165  0.50465013  0.94917449    -1.84100
O370        O  0.03024758  0.93502538  0.92326918    -0.74800
O371        O  0.07027074  0.53558251  0.96943437    -0.74600
O372        O  0.99886921  0.53113045  0.86455885    -0.74100
O373        O  0.06257418  0.95647051  0.96580762    -0.74800
O374        O  0.98646391  0.97845425  0.86553698    -0.74400
O375        O  0.04758389  0.56685207  0.92699795    -0.74900
O376        O  0.43568938  0.55279195  0.96957484    -0.74300
O377        O  0.02827651  0.49980003  0.03273279    -0.75100
O378        O  0.46756158  0.57539202  0.92770943    -0.74500
O379        O  0.47525905  0.51267742  0.03414669    -0.75000
O380        O  0.42841815  0.97329137  0.97646593    -0.74900
O381        O  0.44956398  0.94163253  0.93359300    -0.74700
C382        C  0.05637807  0.93414421  0.94263310     0.77100
C383        C  0.07109518  0.56066552  0.94901818     0.77600
C384        C  0.99071609  0.50496906  0.84807531     0.76600
C385        C  0.44202076  0.57602027  0.94766010     0.77000
C386        C  0.00236478  0.50692797  0.05049865     0.78100
C387        C  0.42713458  0.94773390  0.95678233     0.77200
C388        C  0.24194244  0.72187310  0.01883053     0.80200
N389        N  0.24570490  0.71833161  0.05539611    -0.78100
C390        C  0.26145899  0.74118630  0.07548695     0.82700
N391        N  0.27366626  0.76782883  0.05851864    -0.78000
C392        C  0.27058082  0.77183294  0.02198732     0.82800
N393        N  0.25447585  0.74876991  0.00193298    -0.79700
C394        C  0.02947302  0.98363747  0.37760931     0.80200
N395        N  0.02966394  0.98755046  0.34089856    -0.78100
C396        C  0.50507173  0.50349736  0.32345895     0.82700
N397        N  0.47993576  0.51580401  0.34332316    -0.78000
C398        C  0.47949227  0.51265441  0.38015723     0.82800
N399        N  0.00429262  0.99640165  0.39741839    -0.79700
Zn400      Zn  0.25625536  0.77796748  0.41479938     1.49700
Zn401      Zn  0.28990495  0.73632560  0.47709558     1.49400
Zn402      Zn  0.21110508  0.74864492  0.47719389     1.49100
Zn403      Zn  0.24327782  0.69978274  0.41924742     1.49500
O404        O  0.25002682  0.74049874  0.44705619    -1.84100
O405        O  0.29801079  0.80349939  0.42590196    -0.74800
O406        O  0.27793060  0.73970850  0.52995183    -0.74600
O407        O  0.18754472  0.79060755  0.46318549    -0.74100
O408        O  0.32220316  0.77318940  0.46799278    -0.74800
O409        O  0.21851521  0.80996500  0.41864053    -0.74400
O410        O  0.22470089  0.75207507  0.52999308    -0.74900
O411        O  0.19902596  0.67804146  0.43113139    -0.74300
O412        O  0.31336847  0.69337266  0.46848377    -0.75100
O413        O  0.17818383  0.71165014  0.47230134    -0.74500
O414        O  0.27987278  0.66743902  0.43044948    -0.75000
O415        O  0.24636161  0.70914750  0.36491402    -0.74900
O416        O  0.25876296  0.76192278  0.36341453    -0.74700
C417        C  0.32182465  0.79840840  0.44777206     0.77100
C418        C  0.25172522  0.74723141  0.54684639     0.77600
C419        C  0.19344556  0.81223420  0.43919435     0.76600
C420        C  0.17618769  0.68571457  0.45329349     0.77000
C421        C  0.30622013  0.66840488  0.44940272     0.78100
C422        C  0.25395995  0.73485032  0.34728169     0.77200
C423        C  0.47009679  0.97877051  0.51966513     0.80200
N424        N  0.98698934  0.00274663  0.50204450    -0.78100
C425        C  0.99960254  0.52833441  0.52132205     0.82700
N426        N  0.99494688  0.52968110  0.55793682    -0.78000
C427        C  0.97847750  0.50578118  0.57571705     0.82800
N428        N  0.46640208  0.98031383  0.55636517    -0.79700
C429        C  0.04586731  0.63908140  0.52350402    -0.17800
C430        C  0.07089918  0.66093408  0.51438796    -0.20000
C431        C  0.09525029  0.65211492  0.48932474     0.20700
C432        C  0.09365265  0.62140729  0.47221581    -0.02900
C433        C  0.06815335  0.59935094  0.48124747    -0.06000
C434        C  0.04464624  0.60804913  0.50761319     0.20900
C435        C  0.06691385  0.56821653  0.46496607     0.19100
C436        C  0.09067921  0.55988363  0.43896005    -0.17500
C437        C  0.11603374  0.58169028  0.43014178    -0.19700
C438        C  0.11808630  0.61234473  0.44703314     0.20600
C439        C  0.14454517  0.63369863  0.44000528    -0.32700
C440        C  0.14693748  0.66400803  0.45797016     0.01300
C441        C  0.12163708  0.67314618  0.48197806    -0.24000
C442        C  0.02118084  0.58515162  0.51882870    -0.28600
C443        C  0.02058241  0.55356874  0.50403005     0.07000
C444        C  0.04286742  0.54558130  0.47617880    -0.27300
H445        H  0.02785729  0.64620651  0.54360885     0.11700
H446        H  0.07163593  0.68450400  0.52760420     0.12800
H447        H  0.09010433  0.53617887  0.42602148     0.11900
H448        H  0.13440592  0.57431886  0.41056597     0.11100
H449        H  0.16365666  0.62634833  0.42128884     0.16500
H450        H  0.12284346  0.69642106  0.49581345     0.12400
H451        H  0.00393568  0.59158244  0.54005488     0.15300
H452        H  0.04270852  0.52124317  0.46476798     0.15100
C453        C  0.38962500  0.93360316  0.43198625    -0.17800
C454        C  0.36811275  0.90822425  0.42251642    -0.20000
C455        C  0.37043180  0.87769572  0.43963246     0.20700
C456        C  0.39554476  0.87237156  0.46551934    -0.02900
C457        C  0.41716461  0.89800692  0.47519507    -0.06000
C458        C  0.41383557  0.92899040  0.45883916     0.20900
C459        C  0.44102717  0.89303947  0.50257412     0.19100
C460        C  0.44427948  0.86222160  0.51864282    -0.17500
C461        C  0.42310090  0.83683589  0.50885893    -0.19700
C462        C  0.39818018  0.84186654  0.48297757     0.20600
C463        C  0.37504601  0.81735198  0.47550150    -0.32700
C464        C  0.34882701  0.82287504  0.45115009     0.01300
C465        C  0.34731654  0.85288868  0.43248856    -0.24000
C466        C  0.43351046  0.95512280  0.47110493    -0.28600
C467        C  0.45566926  0.95064668  0.50015655     0.07000
C468        C  0.45999274  0.91936171  0.51486989    -0.27300
H469        H  0.38669924  0.95712965  0.41903477     0.11700
H470        H  0.34911270  0.91274034  0.40242119     0.12800
H471        H  0.46264214  0.85798758  0.53953037     0.11900
H472        H  0.42560267  0.81351051  0.52235568     0.11100
H473        H  0.37675349  0.79435923  0.48985976     0.16500
H474        H  0.32740572  0.85747316  0.41350901     0.12400
H475        H  0.42986816  0.97930963  0.45999907     0.15300
H476        H  0.47709885  0.91589791  0.53723483     0.15100
C477        C  0.14168685  0.94047666  0.37087160    -0.17800
C478        C  0.16434443  0.91585904  0.37863341    -0.20000
C479        C  0.15678511  0.89145160  0.40396991     0.20700
C480        C  0.12655419  0.89251277  0.42264304    -0.02900
C481        C  0.10367183  0.91752572  0.41491463    -0.06000
C482        C  0.11111013  0.94116828  0.38836796     0.20900
C483        C  0.07292469  0.91815421  0.43267428     0.19100
C484        C  0.06585257  0.89424824  0.45883886    -0.17500
C485        C  0.08854518  0.86944882  0.46648825    -0.19700
C486        C  0.11876722  0.86805495  0.44815068     0.20600
C487        C  0.14095667  0.84226218  0.45414755    -0.32700
C488        C  0.17076417  0.84047018  0.43473388     0.01300
C489        C  0.17861682  0.86559954  0.41018023    -0.24000
C490        C  0.08731294  0.96416761  0.37847082    -0.28600
C491        C  0.05597846  0.96395498  0.39450531     0.07000
C492        C  0.04932217  0.94168907  0.42266435    -0.27300
H493        H  0.14779783  0.95858133  0.35053718     0.11700
H494        H  0.18751994  0.91552112  0.36422750     0.12800
H495        H  0.04246115  0.89430993  0.47282855     0.11900
H496        H  0.08217580  0.85098050  0.48630273     0.11100
H497        H  0.13464581  0.82321859  0.47330759     0.16500
H498        H  0.20155005  0.86479681  0.39530399     0.12400
H499        H  0.09268408  0.98145852  0.35699095     0.15300
H500        H  0.02516410  0.94128297  0.43500664     0.15100
C501        C  0.33776335  0.56141064  0.39886677    -0.17800
C502        C  0.36222978  0.53909128  0.38940522    -0.20000
C503        C  0.39456451  0.54318623  0.40203283     0.20700
C504        C  0.40197614  0.56904009  0.42598917    -0.02900
C505        C  0.37727813  0.59174826  0.43532844    -0.06000
C506        C  0.34523209  0.58828855  0.42098081     0.20900
C507        C  0.38507107  0.61876910  0.45744182     0.19100
C508        C  0.41711620  0.62197992  0.47140587    -0.17500
C509        C  0.44157271  0.59947173  0.46218727    -0.19700
C510        C  0.43446416  0.57331209  0.43886634     0.20600
C511        C  0.45954965  0.55261140  0.42634550    -0.32700
C512        C  0.45259364  0.52832955  0.40051715     0.01300
C513        C  0.41994350  0.52310652  0.38937100    -0.24000
C514        C  0.32165208  0.61252926  0.42747006    -0.28600
C515        C  0.32966228  0.64055501  0.44774116     0.07000
C516        C  0.36117896  0.64287706  0.46370753    -0.27300
H517        H  0.31321226  0.55823325  0.38786506     0.11700
H518        H  0.35608402  0.51919732  0.37127518     0.12800
H519        H  0.42353226  0.64246393  0.48857794     0.11900
H520        H  0.46633155  0.60317801  0.47232659     0.11100
H521        H  0.48480791  0.55707249  0.43433280     0.16500
H522        H  0.41462298  0.50442375  0.36936407     0.12400
H523        H  0.29743209  0.61019066  0.41533605     0.15300
H524        H  0.36766855  0.66417356  0.47958685     0.15100
C525        C  0.28776338  0.78923116  0.19510669    -0.17800
C526        C  0.28633848  0.78844594  0.23303339    -0.20000
C527        C  0.27357982  0.76111909  0.25100755     0.20700
C528        C  0.26281421  0.73398871  0.23070696    -0.02900
C529        C  0.26415653  0.73483060  0.19234311    -0.06000
C530        C  0.27639479  0.76273553  0.17454086     0.20900
C531        C  0.25262384  0.70810936  0.17183495     0.19100
C532        C  0.24069367  0.68042171  0.18995627    -0.17500
C533        C  0.23950279  0.67952968  0.22803282    -0.19700
C534        C  0.25012752  0.70633568  0.24867779     0.20600
C535        C  0.24775976  0.70629040  0.28685646    -0.32700
C536        C  0.25760165  0.73372756  0.30716440     0.00700
C537        C  0.27090958  0.76079661  0.28891351    -0.24000
C538        C  0.27636534  0.76406709  0.13648755    -0.28600
C539        C  0.26388123  0.73806021  0.11568314     0.07000
C540        C  0.25255610  0.70987233  0.13363595    -0.27300
H541        H  0.29732462  0.81079280  0.18182939     0.11700
H542        H  0.29484042  0.80939745  0.24830232     0.12800
H543        H  0.23188804  0.65960793  0.17466760     0.11900
H544        H  0.22982262  0.65802344  0.24132312     0.11100
H545        H  0.23765718  0.68521725  0.30063816     0.16500
H546        H  0.27899985  0.78191468  0.30419580     0.12400
H547        H  0.28529465  0.78586676  0.12314006     0.15300
H548        H  0.24312476  0.68953804  0.11797362     0.15100
C549        C  0.34408693  0.82220931  0.93084470    -0.17800
C550        C  0.36706947  0.84655955  0.92248996    -0.20000
C551        C  0.37062344  0.87404159  0.94495526     0.20700
C552        C  0.34983181  0.87761084  0.97530305    -0.02900
C553        C  0.32674912  0.85298645  0.98382885    -0.06000
C554        C  0.32427019  0.82480771  0.96189718     0.20900
C555        C  0.30725583  0.85591195  0.01527401     0.19100
C556        C  0.30972852  0.88396618  0.03689168    -0.17500
C557        C  0.33232556  0.90841853  0.02827848    -0.19700
C558        C  0.35296525  0.90516041  0.99801372     0.20600
C559        C  0.37741355  0.92842112  0.99089259    -0.32700
C560        C  0.39935154  0.92442108  0.96169154     0.01300
C561        C  0.39526061  0.89743323  0.93834485    -0.24000
C562        C  0.30341085  0.79907513  0.97255340    -0.28600
C563        C  0.28580049  0.80103409  0.00534347     0.07000
C564        C  0.28693702  0.83002680  0.02569968    -0.27300
H565        H  0.34247386  0.80089111  0.91356340     0.11700
H566        H  0.38261536  0.84351451  0.89888770     0.12800
H567        H  0.29477113  0.88661792  0.06102772     0.11900
H568        H  0.33427152  0.92949636  0.04588151     0.11100
H569        H  0.38005579  0.94911202  0.00897532     0.16500
H570        H  0.41170053  0.89421053  0.91551437     0.12400
H571        H  0.30275400  0.77674575  0.95684712     0.15300
H572        H  0.27316029  0.83178562  0.05081945     0.15100
C573        C  0.17910443  0.58661500  0.00297313    -0.17800
C574        C  0.20353720  0.60910288  0.01214571    -0.20000
C575        C  0.20203196  0.64111103  0.99897344     0.20700
C576        C  0.17630718  0.65034072  0.97530851    -0.02900
C577        C  0.15145277  0.62760331  0.96619511    -0.06000
C578        C  0.15270341  0.59577790  0.98057139     0.20900
C579        C  0.12482861  0.63700819  0.94382772     0.19100
C580        C  0.12394290  0.66887468  0.92987499    -0.17500
C581        C  0.14864724  0.69141874  0.93883751    -0.19700
C582        C  0.17469713  0.68258874  0.96200988     0.20600
C583        C  0.19818778  0.70569929  0.97363917    -0.32700
C584        C  0.22255498  0.69694334  0.99910698     0.01300
C585        C  0.22489471  0.66439610  0.01059830    -0.24000
C586        C  0.12704086  0.57391049  0.97338656    -0.28600
C587        C  0.09967676  0.58325061  0.95228776     0.07000
C588        C  0.09913370  0.61471774  0.93684963    -0.27300
H589        H  0.18046505  0.56221977  0.01411268     0.11700
H590        H  0.22321882  0.60166028  0.03024224     0.12800
H591        H  0.10379451  0.67656588  0.91256807     0.11900
H592        H  0.14695993  0.71600953  0.92829287     0.11100
H593        H  0.19611559  0.73084568  0.96493982     0.16500
H594        H  0.24374776  0.65753048  0.03006776     0.12400
H595        H  0.12800791  0.54974602  0.98521272     0.15300
H596        H  0.07824434  0.62225088  0.92053895     0.15100
C597        C  0.98838242  0.56475527  0.73087932    -0.17800
C598        C  0.98636109  0.56495793  0.69286198    -0.20000
C599        C  0.98076545  0.53597076  0.67358777     0.20700
C600        C  0.97615268  0.00663819  0.69291395    -0.02900
C601        C  0.97838697  0.00640025  0.73133095    -0.06000
C602        C  0.98496140  0.53553878  0.75033383     0.20900
C603        C  0.47475777  0.97691485  0.75061783     0.19100
C604        C  0.46803265  0.94811216  0.73139398    -0.17500
C605        C  0.46569603  0.94836607  0.69337718    -0.19700
C606        C  0.47012924  0.97741281  0.67384659     0.20600
C607        C  0.46956663  0.97757035  0.63560979    -0.32700
C608        C  0.97561327  0.50646575  0.61605094     0.01300
C609        C  0.98057596  0.53567901  0.63536203    -0.24000
C610        C  0.98859166  0.53490801  0.78835598    -0.28600
C611        C  0.98588481  0.50548186  0.80785073     0.07000
C612        C  0.47846608  0.97664625  0.78867407    -0.27300
H613        H  0.99318637  0.58739913  0.74504023     0.11700
H614        H  0.98969822  0.58774988  0.67849050     0.12800
H615        H  0.46499797  0.92526793  0.74574226     0.11900
H616        H  0.46094975  0.92571078  0.67920433     0.11100
H617        H  0.46567398  0.95490880  0.62111224     0.16500
H618        H  0.98484027  0.55815215  0.62064105     0.12400
H619        H  0.99391015  0.55735739  0.80270430     0.15300
H620        H  0.47600092  0.95385283  0.80327782     0.15100
C621        C  0.06186219  0.99143705  0.16738341    -0.17800
C622        C  0.06218807  0.99100203  0.20546066    -0.20000
C623        C  0.03406197  0.99976015  0.22516953     0.20700
C624        C  0.00550208  0.50963274  0.20631906    -0.02900
C625        C  0.00512680  0.00994574  0.16784684    -0.06000
C626        C  0.03336371  0.00056299  0.14829567     0.20900
C627        C  0.47634686  0.51918226  0.14899656     0.19100
C628        C  0.44846159  0.52864294  0.16871678    -0.17500
C629        C  0.44886700  0.52844085  0.20678840    -0.19700
C630        C  0.47715499  0.51870515  0.22586117     0.20600
C631        C  0.97737887  0.51736981  0.26406632    -0.32700
C632        C  0.50548820  0.50671735  0.28312556     0.01300
C633        C  0.53385743  0.99832825  0.26333609    -0.24000
C634        C  0.03248602  0.00003492  0.11005816    -0.28600
C635        C  0.00363057  0.50854378  0.09096851     0.07000
C636        C  0.47578275  0.51840829  0.11080267    -0.27300
H637        H  0.08380657  0.98428270  0.15285598     0.11700
H638        H  0.08439455  0.98349650  0.21951144     0.12800
H639        H  0.42618387  0.53593813  0.15467280     0.11900
H640        H  0.42691355  0.53556725  0.22131881     0.11100
H641        H  0.95538727  0.52394757  0.27887213     0.16500
H642        H  0.55580435  0.99037815  0.27759479     0.12400
H643        H  0.05415844  0.99254895  0.09521460     0.15300
H644        H  0.45347229  0.52528106  0.09653940     0.15100
C645        C  0.20195564  0.78457518  0.70044588    -0.17800
C646        C  0.20135512  0.78256990  0.66247888    -0.20000
C647        C  0.22750612  0.76814300  0.64367530     0.20700
C648        C  0.25483895  0.75616634  0.66327332    -0.02900
C649        C  0.25537632  0.75804582  0.70160518    -0.06000
C650        C  0.22868727  0.77208995  0.72024932     0.20900
C651        C  0.28236212  0.74540068  0.72125637     0.19100
C652        C  0.30887382  0.73167997  0.70238615    -0.17500
C653        C  0.30843671  0.72999002  0.66439303    -0.19700
C654        C  0.28141479  0.74188591  0.64463772     0.20600
C655        C  0.28034691  0.73937021  0.60662863    -0.32700
C656        C  0.25286411  0.75058781  0.58692763     0.01300
C657        C  0.22664288  0.76516854  0.60568508    -0.24000
C658        C  0.22888551  0.77290358  0.75837569    -0.28600
C659        C  0.25528463  0.75956145  0.77829958     0.07000
C660        C  0.28213301  0.74621573  0.75941444    -0.27300
H661        H  0.18132680  0.79553998  0.71434906     0.11700
H662        H  0.18026344  0.79205525  0.64782744     0.12800
H663        H  0.32985120  0.72197268  0.71704359     0.11900
H664        H  0.32907884  0.71904782  0.65047959     0.11100
H665        H  0.30073110  0.72818739  0.59245604     0.16500
H666        H  0.20552218  0.77423558  0.59073304     0.12400
H667        H  0.20808405  0.78334979  0.77248772     0.15300
H668        H  0.30274459  0.73609364  0.77436965     0.15100
C669        C  0.33197546  0.62623624  0.96529242    -0.17800
C670        C  0.30864712  0.64986912  0.95559608    -0.20000
C671        C  0.31699151  0.67536317  0.93186792     0.20700
C672        C  0.34948319  0.67741579  0.91856984    -0.02900
C673        C  0.37302065  0.65365970  0.92845974    -0.06000
C674        C  0.36412622  0.62763992  0.95150203     0.20900
C675        C  0.40514053  0.65537705  0.91422962     0.19100
C676        C  0.41376428  0.68113896  0.89109625    -0.17500
C677        C  0.39045481  0.70444820  0.88108903    -0.19700
C678        C  0.35819384  0.70250858  0.89422708     0.20600
C679        C  0.33420305  0.72442530  0.88216200    -0.32700
C680        C  0.30154781  0.72189477  0.89410231     0.01300
C681        C  0.29320902  0.69796931  0.91988881    -0.24000
C682        C  0.38718073  0.60296456  0.95922662    -0.28600
C683        C  0.41889678  0.60388644  0.94386740     0.07000
C684        C  0.42780716  0.63072307  0.92221287    -0.27300
H685        H  0.32466796  0.60648824  0.98307106     0.11700
H686        H  0.28388104  0.64779458  0.96603517     0.12800
H687        H  0.43835434  0.68283812  0.88004311     0.11900
H688        H  0.39750389  0.72366060  0.86246728     0.11100
H689        H  0.34064202  0.74285159  0.86227188     0.16500
H690        H  0.26793081  0.69568645  0.92875892     0.12400
H691        H  0.38000734  0.58247134  0.97600694     0.15300
H692        H  0.45217435  0.63195654  0.91046428     0.15100
C693        C  0.16314243  0.87908740  0.96921205    -0.17800
C694        C  0.18687814  0.85559073  0.96044875    -0.20000
C695        C  0.18127550  0.83328452  0.93212634     0.20700
C696        C  0.15100446  0.83427161  0.91312392    -0.02900
C697        C  0.12705268  0.85790404  0.92202723    -0.06000
C698        C  0.13327516  0.88072506  0.94989055     0.20900
C699        C  0.09724860  0.85921425  0.90229576     0.19100
C700        C  0.09132965  0.83664536  0.87440036    -0.17500
C701        C  0.11504384  0.81346265  0.86544543    -0.19700
C702        C  0.14504938  0.81236576  0.88431646     0.20600
C703        C  0.16970462  0.79068459  0.87370624    -0.32700
C704        C  0.20047868  0.79049138  0.89121542     0.01300
C705        C  0.20581460  0.81104144  0.92130791    -0.24000
C706        C  0.10985918  0.90515186  0.95729141    -0.28600
C707        C  0.08028150  0.90702925  0.93711510     0.07000
C708        C  0.07413460  0.88350876  0.91007931    -0.27300
H709        H  0.16836833  0.89631249  0.99078241     0.11700
H710        H  0.20990109  0.85527797  0.97538436     0.12800
H711        H  0.06855543  0.83729090  0.85903661     0.11900
H712        H  0.11014567  0.79675088  0.84327716     0.11100
H713        H  0.16547415  0.77480921  0.85058145     0.16500
H714        H  0.22963827  0.81121917  0.93464802     0.12400
H715        H  0.11496615  0.92302788  0.97824134     0.15300
H716        H  0.05158083  0.88450835  0.89432726     0.15100
C717        C  0.77603191  0.24096350  0.87491156     0.80200
N718        N  0.75109503  0.25619554  0.89292784    -0.78100
C719        C  0.72778465  0.27277999  0.87359760     0.82700
N720        N  0.72955451  0.27369081  0.83672984    -0.78000
C721        C  0.75427347  0.25882695  0.81867176     0.82800
N722        N  0.77745857  0.24260163  0.83800863    -0.79700
Zn723      Zn  0.49126778  0.46585033  0.91879605     1.49700
Zn724      Zn  0.53863721  0.99859154  0.97861385     1.49400
Zn725      Zn  0.50390781  0.04328654  0.91793698     1.49100
Zn726      Zn  0.96049779  0.01096322  0.98139398     1.49500
O727        O  0.49857167  0.00465008  0.94917444    -1.84100
O728        O  0.53024774  0.43502548  0.92326917    -0.74800
O729        O  0.57027089  0.03558230  0.96943428    -0.74600
O730        O  0.49886932  0.03113028  0.86455877    -0.74100
O731        O  0.56257429  0.45647064  0.96580764    -0.74800
O732        O  0.48646387  0.47845431  0.86553705    -0.74400
O733        O  0.54758404  0.06685183  0.92699783    -0.74900
O734        O  0.93568946  0.05279203  0.96957477    -0.74300
O735        O  0.52827651  0.99980006  0.03273274    -0.75100
O736        O  0.96756169  0.07539200  0.92770932    -0.74500
O737        O  0.97525909  0.01267750  0.03414661    -0.75000
O738        O  0.92841817  0.47329129  0.97646592    -0.74900
O739        O  0.94956409  0.44163249  0.93359301    -0.74700
C740        C  0.55637824  0.43414436  0.94263308     0.77100
C741        C  0.57109535  0.06066528  0.94901804     0.77600
C742        C  0.49071620  0.00496891  0.84807524     0.76600
C743        C  0.94202088  0.07602031  0.94766000     0.77000
C744        C  0.50236480  0.00692809  0.05049859     0.78100
C745        C  0.92713464  0.44773382  0.95678232     0.77200
C746        C  0.74194236  0.22187313  0.01883029     0.80200
N747        N  0.74570480  0.21833172  0.05539586    -0.78100
C748        C  0.76145882  0.24118647  0.07548668     0.82700
N749        N  0.77366605  0.26782900  0.05851832    -0.78000
C750        C  0.77058065  0.27183304  0.02198700     0.82800
N751        N  0.75447574  0.24876994  0.00193267    -0.79700
C752        C  0.52947295  0.48363739  0.37760947     0.80200
N753        N  0.52966382  0.48755032  0.34089870    -0.78100
C754        C  0.00507186  0.00349750  0.32345880     0.82700
N755        N  0.97993584  0.01580407  0.34332299    -0.78000
C756        C  0.97949228  0.01265439  0.38015704     0.82800
N757        N  0.50429262  0.49640166  0.39741857    -0.79700
Zn758      Zn  0.75625543  0.27796751  0.41479937     1.49700
Zn759      Zn  0.78990504  0.23632546  0.47709546     1.49400
Zn760      Zn  0.71110518  0.24864482  0.47719385     1.49100
Zn761      Zn  0.74327787  0.19978278  0.41924717     1.49500
O762        O  0.75002690  0.24049870  0.44705608    -1.84100
O763        O  0.79801086  0.30349939  0.42590205    -0.74800
O764        O  0.77793071  0.23970826  0.52995173    -0.74600
O765        O  0.68754473  0.29060743  0.46318553    -0.74100
O766        O  0.82220327  0.27318928  0.46799275    -0.74800
O767        O  0.71851524  0.30996499  0.41864065    -0.74400
O768        O  0.72470103  0.25207498  0.52999302    -0.74900
O769        O  0.69902602  0.17804148  0.43113115    -0.74300
O770        O  0.81336848  0.19337249  0.46848354    -0.75100
O771        O  0.67818398  0.21165001  0.47230133    -0.74500
O772        O  0.77987279  0.16743898  0.43044914    -0.75000
O773        O  0.74636165  0.20914769  0.36491379    -0.74900
O774        O  0.75876302  0.26192296  0.36341442    -0.74700
C775        C  0.82182474  0.29840834  0.44777211     0.77100
C776        C  0.75172537  0.24723125  0.54684631     0.77600
C777        C  0.69344558  0.31223413  0.43919443     0.76600
C778        C  0.67618781  0.18571450  0.45329337     0.77000
C779        C  0.80622012  0.16840475  0.44940243     0.78100
C780        C  0.75395998  0.23485054  0.34728151     0.77200
C781        C  0.97009669  0.47877061  0.51966524     0.80200
N782        N  0.48698915  0.50274681  0.50204465    -0.78100
C783        C  0.49960271  0.02833427  0.52132195     0.82700
N784        N  0.49494705  0.02968096  0.55793672    -0.78000
C785        C  0.47847764  0.00578105  0.57571694     0.82800
N786        N  0.96640197  0.48031394  0.55636528    -0.79700
C787        C  0.54586736  0.13908131  0.52350363    -0.17800
C788        C  0.57089919  0.16093406  0.51438762    -0.20000
C789        C  0.59525039  0.15211481  0.48932451     0.20700
C790        C  0.59365286  0.12140712  0.47221573    -0.02900
C791        C  0.56815357  0.09935075  0.48124737    -0.06000
C792        C  0.54464636  0.10804900  0.50761297     0.20900
C793        C  0.56691416  0.06821629  0.46496610     0.19100
C794        C  0.59067963  0.05988329  0.43896021    -0.17500
C795        C  0.61603413  0.08168999  0.43014199    -0.19700
C796        C  0.61808660  0.11234450  0.44703319     0.20600
C797        C  0.64454544  0.13369843  0.44000532    -0.32700
C798        C  0.64693764  0.16400791  0.45797005     0.01300
C799        C  0.62163716  0.17314610  0.48197783    -0.24000
C800        C  0.52118099  0.08515148  0.51882844    -0.28600
C801        C  0.52058261  0.05356857  0.50402994     0.07000
C802        C  0.54286772  0.04558109  0.47617882    -0.27300
H803        H  0.52785717  0.14620650  0.54360847     0.11700
H804        H  0.57163585  0.18450391  0.52760370     0.12800
H805        H  0.59010484  0.03617858  0.42602180     0.11900
H806        H  0.63440647  0.07431851  0.41056622     0.11100
H807        H  0.66365701  0.12634810  0.42128897     0.16500
H808        H  0.62284345  0.19642102  0.49581311     0.12400
H809        H  0.50393565  0.09158237  0.54005465     0.15300
H810        H  0.54270887  0.02124287  0.46476806     0.15100
C811        C  0.88962507  0.43360308  0.43198627    -0.17800
C812        C  0.86811282  0.40822418  0.42251636    -0.20000
C813        C  0.87043189  0.37769566  0.43963250     0.20700
C814        C  0.89554479  0.37237155  0.46551946    -0.02900
C815        C  0.91716461  0.39800693  0.47519520    -0.06000
C816        C  0.91383558  0.42899040  0.45883923     0.20900
C817        C  0.94102712  0.39303954  0.50257431     0.19100
C818        C  0.94427938  0.36222170  0.51864303    -0.17500
C819        C  0.92310087  0.33683594  0.50885918    -0.19700
C820        C  0.89818019  0.34186656  0.48297774     0.20600
C821        C  0.87504605  0.31735196  0.47550168    -0.32700
C822        C  0.84882709  0.32287499  0.45115018     0.01300
C823        C  0.84731662  0.35288861  0.43248856    -0.24000
C824        C  0.93351045  0.45512280  0.47110501    -0.28600
C825        C  0.95566920  0.45064676  0.50015668     0.07000
C826        C  0.95999263  0.41936181  0.51487003    -0.27300
H827        H  0.88669933  0.45712964  0.41903470     0.11700
H828        H  0.84911292  0.41274021  0.40242120     0.12800
H829        H  0.96264211  0.35798769  0.53953075     0.11900
H830        H  0.92560262  0.31351063  0.52235595     0.11100
H831        H  0.87675349  0.29435930  0.48985995     0.16500
H832        H  0.82740594  0.35747305  0.41350904     0.12400
H833        H  0.92986815  0.47930969  0.45999908     0.15300
H834        H  0.97709880  0.41589803  0.53723515     0.15100
C835        C  0.64168670  0.44047642  0.37087151    -0.17800
C836        C  0.66434429  0.41585882  0.37863331    -0.20000
C837        C  0.65678503  0.39145144  0.40396991     0.20700
C838        C  0.62655415  0.39251267  0.42264312    -0.02900
C839        C  0.60367178  0.41752561  0.41491473    -0.06000
C840        C  0.61111003  0.44116812  0.38836796     0.20900
C841        C  0.57292468  0.41815417  0.43267445     0.19100
C842        C  0.56585260  0.39424824  0.45883913    -0.17500
C843        C  0.58854525  0.36944887  0.46648846    -0.19700
C844        C  0.61876724  0.36805490  0.44815086     0.20600
C845        C  0.64095672  0.34226218  0.45414770    -0.32700
C846        C  0.67076416  0.34047010  0.43473399     0.01300
C847        C  0.67861676  0.36559940  0.41018023    -0.24000
C848        C  0.58731284  0.46416745  0.37847088    -0.28600
C849        C  0.55597841  0.46395490  0.39450545     0.07000
C850        C  0.54932214  0.44168903  0.42266456    -0.27300
H851        H  0.64779765  0.45858106  0.35053701     0.11700
H852        H  0.68751976  0.41552084  0.36422732     0.12800
H853        H  0.54246127  0.39430997  0.47282885     0.11900
H854        H  0.58217586  0.35098048  0.48630314     0.11100
H855        H  0.63464587  0.32321852  0.47330793     0.16500
H856        H  0.70154991  0.36479663  0.39530394     0.12400
H857        H  0.59268396  0.48145836  0.35699092     0.15300
H858        H  0.52516416  0.44128298  0.43500689     0.15100
C859        C  0.83776332  0.06141059  0.39886619    -0.17800
C860        C  0.86222977  0.03909126  0.38940468    -0.20000
C861        C  0.89456445  0.04318610  0.40203246     0.20700
C862        C  0.90197599  0.06903982  0.42598901    -0.02900
C863        C  0.87727798  0.09174798  0.43532827    -0.06000
C864        C  0.84523201  0.08828841  0.42098041     0.20900
C865        C  0.88507086  0.11876871  0.45744185     0.19100
C866        C  0.91711592  0.12197940  0.47140615    -0.17500
C867        C  0.94157242  0.09947122  0.46218755    -0.19700
C868        C  0.93446397  0.07331172  0.43886639     0.20600
C869        C  0.95954950  0.05261110  0.42634553    -0.32700
C870        C  0.95259358  0.02832942  0.40051695     0.01300
C871        C  0.91994348  0.02310648  0.38937065    -0.24000
C872        C  0.82165206  0.11252916  0.42746962    -0.28600
C873        C  0.82966220  0.14055482  0.44774088     0.07000
C874        C  0.86117879  0.14287672  0.46370751    -0.27300
H875        H  0.81321229  0.05823329  0.38786433     0.11700
H876        H  0.85608405  0.01919734  0.37127445     0.12800
H877        H  0.92353192  0.14246328  0.48857837     0.11900
H878        H  0.96633125  0.10317740  0.47232706     0.11100
H879        H  0.98480772  0.05707211  0.43433300     0.16500
H880        H  0.91462301  0.00442374  0.36936346     0.12400
H881        H  0.79743205  0.11019067  0.41533539     0.15300
H882        H  0.86766833  0.16417310  0.47958696     0.15100
C883        C  0.78776262  0.28923168  0.19510642    -0.17800
C884        C  0.78633779  0.28844652  0.23303311    -0.20000
C885        C  0.77357941  0.26111953  0.25100730     0.20700
C886        C  0.76281404  0.23398906  0.23070673    -0.02900
C887        C  0.76415631  0.23483093  0.19234288    -0.06000
C888        C  0.77639430  0.26273597  0.17454060     0.20900
C889        C  0.75262387  0.20810958  0.17183474     0.19100
C890        C  0.74069396  0.18042182  0.18995608    -0.17500
C891        C  0.73950313  0.17952983  0.22803262    -0.19700
C892        C  0.75012762  0.20633591  0.24867759     0.20600
C893        C  0.74775994  0.20629063  0.28685626    -0.32700
C894        C  0.75760161  0.23372785  0.30716419     0.00700
C895        C  0.77090925  0.26079706  0.28891329    -0.24000
C896        C  0.77636484  0.26406743  0.13648731    -0.28600
C897        C  0.76388102  0.23806047  0.11568289     0.07000
C898        C  0.75255614  0.20987252  0.13363575    -0.27300
H899        H  0.79732369  0.31079351  0.18182903     0.11700
H900        H  0.79483953  0.30939807  0.24830199     0.12800
H901        H  0.73188853  0.15960799  0.17466746     0.11900
H902        H  0.72982315  0.15802345  0.24132299     0.11100
H903        H  0.73765757  0.18521734  0.30063799     0.16500
H904        H  0.77899932  0.28191513  0.30419551     0.12400
H905        H  0.78529400  0.28586732  0.12313970     0.15300
H906        H  0.74312499  0.18953809  0.11797340     0.15100
C907        C  0.84408722  0.32220910  0.93084467    -0.17800
C908        C  0.86706981  0.34655930  0.92249001    -0.20000
C909        C  0.87062362  0.37404144  0.94495517     0.20700
C910        C  0.84983175  0.37761083  0.97530275    -0.02900
C911        C  0.82674899  0.35298648  0.98382849    -0.06000
C912        C  0.82427026  0.32480763  0.96189695     0.20900
C913        C  0.80725549  0.35591210  0.01527345     0.19100
C914        C  0.80972797  0.38396644  0.03689102    -0.17500
C915        C  0.83232510  0.40841877  0.02827786    -0.19700
C916        C  0.85296503  0.40516050  0.99801330     0.20600
C917        C  0.87741339  0.42842118  0.99089229    -0.32700
C918        C  0.89935160  0.42442100  0.96169144     0.01300
C919        C  0.89526081  0.39743305  0.93834490    -0.24000
C920        C  0.80341087  0.29907510  0.97255317    -0.28600
C921        C  0.78580030  0.30103416  0.00534307     0.07000
C922        C  0.78693661  0.33002697  0.02569918    -0.27300
H923        H  0.84247428  0.30089080  0.91356347     0.11700
H924        H  0.88261590  0.34351414  0.89888788     0.12800
H925        H  0.79477048  0.38661826  0.06102679     0.11900
H926        H  0.83427092  0.42949663  0.04588074     0.11100
H927        H  0.88005549  0.44911213  0.00897488     0.16500
H928        H  0.91170098  0.39421024  0.91551449     0.12400
H929        H  0.80275418  0.27674557  0.95684698     0.15300
H930        H  0.77315982  0.33178586  0.05081866     0.15100
C931        C  0.67910477  0.08661485  0.00297260    -0.17800
C932        C  0.70353755  0.10910275  0.01214521    -0.20000
C933        C  0.70203211  0.14111097  0.99897305     0.20700
C934        C  0.67630722  0.15034062  0.97530828    -0.02900
C935        C  0.65145285  0.12760319  0.96619486    -0.06000
C936        C  0.65270365  0.09577772  0.98057101     0.20900
C937        C  0.62482858  0.13700805  0.94382764     0.19100
C938        C  0.62394268  0.16887460  0.92987505    -0.17500
C939        C  0.64864699  0.19141866  0.93883761    -0.19700
C940        C  0.67469699  0.18258870  0.96200979     0.20600
C941        C  0.69818761  0.20569922  0.97363910    -0.32700
C942        C  0.72255493  0.19694334  0.99910674     0.01300
C943        C  0.72489487  0.16439605  0.01059798    -0.24000
C944        C  0.62704112  0.07391027  0.97338620    -0.28600
C945        C  0.59967693  0.08325037  0.95228757     0.07000
C946        C  0.59913369  0.11471757  0.93684952    -0.27300
H947        H  0.68046551  0.06221954  0.01411207     0.11700
H948        H  0.72321914  0.10166020  0.03024151     0.12800
H949        H  0.60379427  0.17656577  0.91256831     0.11900
H950        H  0.64695953  0.21600961  0.92829305     0.11100
H951        H  0.69611527  0.23084583  0.96493979     0.16500
H952        H  0.74374786  0.15753051  0.03006719     0.12400
H953        H  0.62800827  0.04974573  0.98521229     0.15300
H954        H  0.57824435  0.12225067  0.92053905     0.15100
C955        C  0.48838253  0.06475512  0.73087927    -0.17800
C956        C  0.48636120  0.06495775  0.69286193    -0.20000
C957        C  0.48076563  0.03597060  0.67358769     0.20700
C958        C  0.47615245  0.50663841  0.69291407    -0.02900
C959        C  0.47838677  0.50640044  0.73133108    -0.06000
C960        C  0.48496158  0.03553860  0.75033375     0.20900
C961        C  0.97475743  0.47691507  0.75061793     0.19100
C962        C  0.96803221  0.44811235  0.73139412    -0.17500
C963        C  0.96569563  0.44836631  0.69337732    -0.19700
C964        C  0.97012894  0.47741299  0.67384670     0.20600
C965        C  0.96956639  0.47757055  0.63560992    -0.32700
C966        C  0.47561344  0.00646561  0.61605084     0.01300
C967        C  0.48057610  0.03567885  0.63536195    -0.24000
C968        C  0.48859180  0.03490787  0.78835593    -0.28600
C969        C  0.48588499  0.00548167  0.80785065     0.07000
C970        C  0.97846577  0.47664644  0.78867418    -0.27300
H971        H  0.49318641  0.08739894  0.74504016     0.11700
H972        H  0.48969829  0.08774979  0.67849042     0.12800
H973        H  0.96499747  0.42526822  0.74574235     0.11900
H974        H  0.96094927  0.42571093  0.67920442     0.11100
H975        H  0.96567369  0.45490890  0.62111232     0.16500
H976        H  0.48484036  0.05815205  0.62064096     0.12400
H977        H  0.49391018  0.05735717  0.80270420     0.15300
H978        H  0.97600057  0.45385308  0.80327791     0.15100
C979        C  0.56186212  0.49143704  0.16738356    -0.17800
C980        C  0.56218802  0.49100198  0.20546084    -0.20000
C981        C  0.53406184  0.49976001  0.22516967     0.20700
C982        C  0.50550212  0.00963287  0.20631899    -0.02900
C983        C  0.50512666  0.50994553  0.16784697    -0.06000
C984        C  0.53336362  0.50056290  0.14829581     0.20900
C985        C  0.97634702  0.01918257  0.14899644     0.19100
C986        C  0.94846182  0.02864337  0.16871669    -0.17500
C987        C  0.94886724  0.02844128  0.20678829    -0.19700
C988        C  0.97715520  0.01870548  0.22586105     0.20600
C989        C  0.47737890  0.01736996  0.26406628    -0.32700
C990        C  0.00548837  0.00671755  0.28312542     0.01300
C991        C  0.03385733  0.49832815  0.26333614    -0.24000
C992        C  0.53248598  0.50003486  0.11005827    -0.28600
C993        C  0.50363059  0.00854392  0.09096844     0.07000
C994        C  0.97578286  0.01840856  0.11080254    -0.27300
H995        H  0.58380653  0.48428279  0.15285614     0.11700
H996        H  0.58439440  0.48349656  0.21951155     0.12800
H997        H  0.92618408  0.03593864  0.15467269     0.11900
H998        H  0.92691380  0.03556777  0.22131872     0.11100
H999        H  0.45538741  0.02394772  0.27887203     0.16500
H1000       H  0.05580439  0.49037800  0.27759495     0.12400
H1001       H  0.55415837  0.49254901  0.09521477     0.15300
H1002       H  0.95347249  0.02528139  0.09653932     0.15100
C1003       C  0.70195640  0.28457613  0.70044569    -0.17800
C1004       C  0.70135577  0.28257070  0.66247871    -0.20000
C1005       C  0.72750660  0.26814344  0.64367517     0.20700
C1006       C  0.75483935  0.25616663  0.66327320    -0.02900
C1007       C  0.75537681  0.25804628  0.70160504    -0.06000
C1008       C  0.72868791  0.27209073  0.72024917     0.20900
C1009       C  0.78236251  0.24540098  0.72125625     0.19100
C1010       C  0.80887408  0.23167998  0.70238606    -0.17500
C1011       C  0.80843689  0.22998983  0.66439294    -0.19700
C1012       C  0.78141502  0.24188585  0.64463762     0.20600
C1013       C  0.78034703  0.23936996  0.60662855    -0.32700
C1014       C  0.75286431  0.25058772  0.58692754     0.01300
C1015       C  0.72664326  0.26516878  0.60568497    -0.24000
C1016       C  0.72888620  0.27290441  0.75837551    -0.28600
C1017       C  0.75528516  0.25956207  0.77829944     0.07000
C1018       C  0.78213343  0.24621613  0.75941431    -0.27300
H1019       H  0.68132763  0.29554122  0.71434890     0.11700
H1020       H  0.68026418  0.29205619  0.64782727     0.12800
H1021       H  0.82985138  0.22197258  0.71704350     0.11900
H1022       H  0.82907887  0.21904741  0.65047954     0.11100
H1023       H  0.80073109  0.22818688  0.59245598     0.16500
H1024       H  0.70552260  0.27423597  0.59073290     0.12400
H1025       H  0.70808473  0.28335086  0.77248760     0.15300
H1026       H  0.80274494  0.23609386  0.77436955     0.15100
C1027       C  0.83197570  0.12623653  0.96529235    -0.17800
C1028       C  0.80864740  0.14986941  0.95559600    -0.20000
C1029       C  0.81699178  0.17536339  0.93186776     0.20700
C1030       C  0.84948344  0.17741590  0.91856958    -0.02900
C1031       C  0.87302086  0.15365979  0.92845951    -0.06000
C1032       C  0.86412643  0.12764009  0.95150191     0.20900
C1033       C  0.90514072  0.15537704  0.91422930     0.19100
C1034       C  0.91376445  0.18113885  0.89109581    -0.17500
C1035       C  0.89045504  0.20444812  0.88108857    -0.19700
C1036       C  0.85819409  0.20250861  0.89422673     0.20600
C1037       C  0.83420335  0.22442539  0.88216168    -0.32700
C1038       C  0.80154812  0.22189497  0.89410210     0.01300
C1039       C  0.79320938  0.19796958  0.91988864    -0.24000
C1040       C  0.88718092  0.10296473  0.95922655    -0.28600
C1041       C  0.91889694  0.10388650  0.94386726     0.07000
C1042       C  0.92780731  0.13072305  0.92221261    -0.27300
H1043       H  0.82466817  0.10648853  0.98307113     0.11700
H1044       H  0.78388128  0.14779495  0.96603518     0.12800
H1045       H  0.93835452  0.18283792  0.88004257     0.11900
H1046       H  0.89750411  0.22366043  0.86246675     0.11100
H1047       H  0.84064232  0.24285161  0.86227154     0.16500
H1048       H  0.76793101  0.19568680  0.92875889     0.12400
H1049       H  0.88000751  0.08247154  0.97600699     0.15300
H1050       H  0.95217451  0.13195645  0.91046395     0.15100
C1051       C  0.66314279  0.37908783  0.96921186    -0.17800
C1052       C  0.68687851  0.35559119  0.96044853    -0.20000
C1053       C  0.68127589  0.33328492  0.93212621     0.20700
C1054       C  0.65100480  0.33427191  0.91312385    -0.02900
C1055       C  0.62705301  0.35790431  0.92202718    -0.06000
C1056       C  0.63327548  0.38072539  0.94989044     0.20900
C1057       C  0.59724889  0.35921443  0.90229577     0.19100
C1058       C  0.59132993  0.33664546  0.87440045    -0.17500
C1059       C  0.61504413  0.31346275  0.86544548    -0.19700
C1060       C  0.64504972  0.31236599  0.88431647     0.20600
C1061       C  0.66970498  0.29068484  0.87370620    -0.32700
C1062       C  0.70047909  0.29049175  0.89121534     0.01300
C1063       C  0.70581494  0.31104187  0.92130772    -0.24000
C1064       C  0.60985945  0.40515212  0.95729126    -0.28600
C1065       C  0.58028174  0.40702945  0.93711505     0.07000
C1066       C  0.57413485  0.38350891  0.91007931    -0.27300
H1067       H  0.66836871  0.39631299  0.99078220     0.11700
H1068       H  0.70990160  0.35527851  0.97538416     0.12800
H1069       H  0.56855564  0.33729093  0.85903673     0.11900
H1070       H  0.61014597  0.29675101  0.84327738     0.11100
H1071       H  0.66547453  0.27480946  0.85058154     0.16500
H1072       H  0.72963887  0.31121969  0.93464790     0.12400
H1073       H  0.61496644  0.42302827  0.97824126     0.15300
H1074       H  0.55158105  0.38450843  0.89432731     0.15100
C1075       C  0.77603177  0.74096281  0.87491170     0.80200
N1076       N  0.75109487  0.75619482  0.89292797    -0.78100
C1077       C  0.72778444  0.77277919  0.87359774     0.82700
N1078       N  0.72955426  0.77368997  0.83672998    -0.78000
C1079       C  0.75427325  0.75882615  0.81867189     0.82800
N1080       N  0.77745841  0.74260090  0.83800875    -0.79700
Zn1081     Zn  0.49126784  0.96584978  0.91879613     1.49700
Zn1082     Zn  0.53863716  0.49859220  0.97861372     1.49400
Zn1083     Zn  0.50390762  0.54328714  0.91793691     1.49100
Zn1084     Zn  0.96049780  0.51096266  0.98139413     1.49500
O1085       O  0.49857158  0.50465064  0.94917437    -1.84100
O1086       O  0.53024773  0.93502486  0.92326929    -0.74800
O1087       O  0.57027071  0.53558307  0.96943413    -0.74600
O1088       O  0.49886917  0.53113087  0.86455871    -0.74100
O1089       O  0.56257424  0.95646992  0.96580785    -0.74800
O1090       O  0.48646396  0.97845374  0.86553713    -0.74400
O1091       O  0.54758377  0.56685259  0.92699774    -0.74900
O1092       O  0.93568947  0.55279151  0.96957502    -0.74300
O1093       O  0.52827651  0.49980065  0.03273266    -0.75100
O1094       O  0.96756171  0.57539157  0.92770965    -0.74500
O1095       O  0.97525904  0.51267678  0.03414679    -0.75000
O1096       O  0.92841814  0.97329187  0.97646594    -0.74900
O1097       O  0.94956384  0.94163309  0.93359287    -0.74700
C1098       C  0.55637818  0.93414367  0.94263325     0.77100
C1099       C  0.57109511  0.56066607  0.94901792     0.77600
C1100       C  0.49071609  0.50496949  0.84807517     0.76600
C1101       C  0.94202089  0.57601984  0.94766032     0.77000
C1102       C  0.50236481  0.50692862  0.05049854     0.78100
C1103       C  0.92713450  0.94773443  0.95678229     0.77200
C1104       C  0.74194232  0.72187364  0.01883032     0.80200
N1105       N  0.74570481  0.71833208  0.05539588    -0.78100
C1106       C  0.76145892  0.74118673  0.07548677     0.82700
N1107       N  0.77366618  0.76782928  0.05851850    -0.78000
C1108       C  0.77058071  0.77183348  0.02198721     0.82800
N1109       N  0.75447572  0.74877049  0.00193281    -0.79700
C1110       C  0.52947302  0.98363757  0.37760957     0.80200
N1111       N  0.52966390  0.98755041  0.34089880    -0.78100
C1112       C  0.00507168  0.50349722  0.32345907     0.82700
N1113       N  0.97993573  0.51580396  0.34332325    -0.78000
C1114       C  0.97949223  0.51265445  0.38015732     0.82800
N1115       N  0.50429265  0.99640180  0.39741863    -0.79700
Zn1116     Zn  0.75625554  0.77796780  0.41479932     1.49700
Zn1117     Zn  0.78990517  0.73632592  0.47709551     1.49400
Zn1118     Zn  0.71110531  0.74864518  0.47719388     1.49100
Zn1119     Zn  0.74327800  0.69978308  0.41924732     1.49500
O1120       O  0.75002702  0.74049906  0.44705613    -1.84100
O1121       O  0.79801096  0.80349974  0.42590191    -0.74800
O1122       O  0.77793085  0.73970878  0.52995177    -0.74600
O1123       O  0.68754494  0.79060781  0.46318556    -0.74100
O1124       O  0.82220337  0.77318974  0.46799271    -0.74800
O1125       O  0.71851536  0.80996530  0.41864057    -0.74400
O1126       O  0.72470113  0.75207531  0.52999307    -0.74900
O1127       O  0.69902609  0.67804186  0.43113122    -0.74300
O1128       O  0.81336865  0.69337298  0.46848368    -0.75100
O1129       O  0.67818402  0.71165046  0.47230130    -0.74500
O1130       O  0.77987293  0.66743932  0.43044943    -0.75000
O1131       O  0.74636184  0.70914785  0.36491390    -0.74900
O1132       O  0.75876314  0.76192314  0.36341440    -0.74700
C1133       C  0.82182483  0.79840875  0.44777200     0.77100
C1134       C  0.75172548  0.74723166  0.54684636     0.77600
C1135       C  0.69344574  0.81223448  0.43919442     0.76600
C1136       C  0.67618783  0.68571495  0.45329335     0.77000
C1137       C  0.80622028  0.66840518  0.44940266     0.78100
C1138       C  0.75396015  0.73485067  0.34728156     0.77200
C1139       C  0.97009705  0.97877085  0.51966496     0.80200
N1140       N  0.48698916  0.00274625  0.50204470    -0.78100
C1141       C  0.49960263  0.52833489  0.52132185     0.82700
N1142       N  0.49494700  0.52968160  0.55793663    -0.78000
C1143       C  0.47847769  0.50578165  0.57571689     0.82800
N1144       N  0.96640239  0.98031416  0.55636500    -0.79700
C1145       C  0.54586725  0.63908196  0.52350351    -0.17800
C1146       C  0.57089910  0.66093470  0.51438749    -0.20000
C1147       C  0.59525027  0.65211544  0.48932434     0.20700
C1148       C  0.59365268  0.62140779  0.47221550    -0.02900
C1149       C  0.56815337  0.59935143  0.48124715    -0.06000
C1150       C  0.54464621  0.60804967  0.50761281     0.20900
C1151       C  0.56691393  0.56821698  0.46496585     0.19100
C1152       C  0.59067935  0.55988400  0.43895991    -0.17500
C1153       C  0.61603386  0.58169067  0.43014169    -0.19700
C1154       C  0.61808639  0.61234515  0.44703293     0.20600
C1155       C  0.64454527  0.63369904  0.44000513    -0.32700
C1156       C  0.64693757  0.66400845  0.45796993     0.01300
C1157       C  0.62163709  0.67314671  0.48197771    -0.24000
C1158       C  0.52118084  0.58515214  0.51882834    -0.28600
C1159       C  0.52058245  0.55356923  0.50402980     0.07000
C1160       C  0.54286751  0.54558174  0.47617860    -0.27300
H1161       H  0.52785712  0.64620714  0.54360838     0.11700
H1162       H  0.57163581  0.68450451  0.52760360     0.12800
H1163       H  0.59010453  0.53617927  0.42602147     0.11900
H1164       H  0.63440619  0.57431918  0.41056589     0.11100
H1165       H  0.66365686  0.62634867  0.42128875     0.16500
H1166       H  0.62284343  0.69642155  0.49581301     0.12400
H1167       H  0.50393561  0.59158300  0.54005454     0.15300
H1168       H  0.54270865  0.52124362  0.46476787     0.15100
C1169       C  0.88962497  0.93360364  0.43198635    -0.17800
C1170       C  0.86811273  0.90822472  0.42251654    -0.20000
C1171       C  0.87043187  0.87769615  0.43963246     0.20700
C1172       C  0.89554492  0.87237194  0.46551923    -0.02900
C1173       C  0.91716477  0.89800731  0.47519494    -0.06000
C1174       C  0.91383565  0.92899082  0.45883913     0.20900
C1175       C  0.94102744  0.89303981  0.50257387     0.19100
C1176       C  0.94427982  0.86222191  0.51864244    -0.17500
C1177       C  0.92310125  0.83683619  0.50885859    -0.19700
C1178       C  0.89818043  0.84186689  0.48297734     0.20600
C1179       C  0.87504628  0.81735227  0.47550133    -0.32700
C1180       C  0.84882717  0.82287541  0.45115001     0.01300
C1181       C  0.84731661  0.85288909  0.43248859    -0.24000
C1182       C  0.93351057  0.95512320  0.47110489    -0.28600
C1183       C  0.95566949  0.95064704  0.50015639     0.07000
C1184       C  0.95999301  0.91936205  0.51486959    -0.27300
H1185       H  0.88669915  0.95713013  0.41903497     0.11700
H1186       H  0.84911258  0.91274084  0.40242140     0.12800
H1187       H  0.96264261  0.85798785  0.53952997     0.11900
H1188       H  0.92560309  0.81351083  0.52235522     0.11100
H1189       H  0.87675382  0.79435962  0.48985940     0.16500
H1190       H  0.82740571  0.85747362  0.41350913     0.12400
H1191       H  0.92986820  0.97931009  0.45999911     0.15300
H1192       H  0.97709930  0.91589820  0.53723456     0.15100
C1193       C  0.64168697  0.94047704  0.37087198    -0.17800
C1194       C  0.66434457  0.91585943  0.37863378    -0.20000
C1195       C  0.65678525  0.89145191  0.40397020     0.20700
C1196       C  0.62655430  0.89251301  0.42264328    -0.02900
C1197       C  0.60367192  0.91752595  0.41491491    -0.06000
C1198       C  0.61111022  0.94116857  0.38836831     0.20900
C1199       C  0.57292475  0.91815436  0.43267450     0.19100
C1200       C  0.56585263  0.89424831  0.45883901    -0.17500
C1201       C  0.58854527  0.86944894  0.46648832    -0.19700
C1202       C  0.61876733  0.86805511  0.44815084     0.20600
C1203       C  0.64095681  0.84226241  0.45414761    -0.32700
C1204       C  0.67076432  0.84047044  0.43473403     0.01300
C1205       C  0.67861700  0.86559987  0.41018046    -0.24000
C1206       C  0.58731300  0.96416788  0.37847117    -0.28600
C1207       C  0.55597850  0.96395516  0.39450562     0.07000
C1208       C  0.54932221  0.94168920  0.42266461    -0.27300
H1209       H  0.64779793  0.95858171  0.35053767     0.11700
H1210       H  0.68752010  0.91552156  0.36422791     0.12800
H1211       H  0.54246119  0.89430993  0.47282866     0.11900
H1212       H  0.58217584  0.85098046  0.48630284     0.11100
H1213       H  0.63464590  0.82321861  0.47330773     0.16500
H1214       H  0.70155019  0.86479719  0.39530428     0.12400
H1215       H  0.59268412  0.98145880  0.35699135     0.15300
H1216       H  0.52516415  0.94128304  0.43500684     0.15100
C1217       C  0.83776338  0.56141084  0.39886687    -0.17800
C1218       C  0.86222977  0.53909141  0.38940529    -0.20000
C1219       C  0.89456452  0.54318641  0.40203290     0.20700
C1220       C  0.90197618  0.56904027  0.42598919    -0.02900
C1221       C  0.87727820  0.59174848  0.43532846    -0.06000
C1222       C  0.84523215  0.58828877  0.42098085     0.20900
C1223       C  0.88507117  0.61876933  0.45744181     0.19100
C1224       C  0.91711631  0.62198014  0.47140585    -0.17500
C1225       C  0.94157279  0.59947192  0.46218725    -0.19700
C1226       C  0.93446422  0.57331228  0.43886635     0.20600
C1227       C  0.95954967  0.55261155  0.42634551    -0.32700
C1228       C  0.95259364  0.52832968  0.40051720     0.01300
C1229       C  0.91994347  0.52310661  0.38937104    -0.24000
C1230       C  0.82165217  0.61252952  0.42747008    -0.28600
C1231       C  0.82966240  0.64055528  0.44774113     0.07000
C1232       C  0.86117909  0.64287733  0.46370751    -0.27300
H1233       H  0.81321224  0.55823345  0.38786518     0.11700
H1234       H  0.85608402  0.51919756  0.37127542     0.12800
H1235       H  0.92353239  0.64246413  0.48857788     0.11900
H1236       H  0.96633166  0.60317818  0.47232657     0.11100
H1237       H  0.98480797  0.55707262  0.43433282     0.16500
H1238       H  0.91462296  0.50442395  0.36936427     0.12400
H1239       H  0.79743216  0.61019093  0.41533608     0.15300
H1240       H  0.86766869  0.66417380  0.47958677     0.15100
C1241       C  0.78776342  0.78923147  0.19510652    -0.17800
C1242       C  0.78633856  0.78844628  0.23303319    -0.20000
C1243       C  0.77357993  0.76111943  0.25100738     0.20700
C1244       C  0.76281432  0.73398905  0.23070680    -0.02900
C1245       C  0.76415659  0.73483094  0.19234295    -0.06000
C1246       C  0.77639483  0.76273587  0.17454068     0.20900
C1247       C  0.75262388  0.70810972  0.17183478     0.19100
C1248       C  0.74069374  0.68042208  0.18995613    -0.17500
C1249       C  0.73950289  0.67953003  0.22803267    -0.19700
C1250       C  0.75012764  0.70633602  0.24867765     0.20600
C1251       C  0.74775993  0.70629074  0.28685633    -0.32700
C1252       C  0.75760183  0.73372791  0.30716425     0.00700
C1253       C  0.77090973  0.76079697  0.28891335    -0.24000
C1254       C  0.77636533  0.76406739  0.13648740    -0.28600
C1255       C  0.76388119  0.73806059  0.11568296     0.07000
C1256       C  0.75255610  0.70987273  0.13363581    -0.27300
H1257       H  0.79732468  0.81079322  0.18182915     0.11700
H1258       H  0.79484051  0.80939781  0.24830212     0.12800
H1259       H  0.73188807  0.65960826  0.17466743     0.11900
H1260       H  0.72982275  0.65802379  0.24132299     0.11100
H1261       H  0.73765737  0.68521761  0.30063802     0.16500
H1262       H  0.77900000  0.78191502  0.30419560     0.12400
H1263       H  0.78529469  0.78586721  0.12313982     0.15300
H1264       H  0.74312468  0.68953835  0.11797338     0.15100
C1265       C  0.84408642  0.82221017  0.93084437    -0.17800
C1266       C  0.86706898  0.84656039  0.92248963    -0.20000
C1267       C  0.87062314  0.87404230  0.94495510     0.20700
C1268       C  0.84983168  0.87761144  0.97530304    -0.02900
C1269       C  0.82674897  0.85298707  0.98382885    -0.06000
C1270       C  0.82426986  0.82480844  0.96189700     0.20900
C1271       C  0.80725586  0.85591244  0.01527414     0.19100
C1272       C  0.80972871  0.88396655  0.03689200    -0.17500
C1273       C  0.83232578  0.90841889  0.02827880    -0.19700
C1274       C  0.85296531  0.90516088  0.99801389     0.20600
C1275       C  0.87741363  0.92842156  0.99089276    -0.32700
C1276       C  0.89935146  0.92442163  0.96169154     0.01300
C1277       C  0.89526034  0.89743391  0.93834469    -0.24000
C1278       C  0.80341053  0.79907587  0.97255323    -0.28600
C1279       C  0.78580035  0.80103468  0.00534341     0.07000
C1280       C  0.78693702  0.83002729  0.02569983    -0.27300
H1281       H  0.84247320  0.80089204  0.91356293     0.11700
H1282       H  0.88261471  0.84351544  0.89888727     0.12800
H1283       H  0.79477149  0.88661819  0.06102811     0.11900
H1284       H  0.83427189  0.92949662  0.04588196     0.11100
H1285       H  0.88005600  0.94911238  0.00897561     0.16500
H1286       H  0.91170012  0.89421130  0.91551411     0.12400
H1287       H  0.80275356  0.77674649  0.95684677     0.15300
H1288       H  0.77316048  0.83178601  0.05081958     0.15100
C1289       C  0.67910463  0.58661549  0.00297226    -0.17800
C1290       C  0.70353739  0.60910336  0.01214485    -0.20000
C1291       C  0.70203199  0.64111159  0.99897284     0.20700
C1292       C  0.67630704  0.65034135  0.97530817    -0.02900
C1293       C  0.65145265  0.62760394  0.96619475    -0.06000
C1294       C  0.65270346  0.59577843  0.98057077     0.20900
C1295       C  0.62482833  0.63700889  0.94382763     0.19100
C1296       C  0.62394243  0.66887548  0.92987518    -0.17500
C1297       C  0.64864677  0.69141953  0.93883772    -0.19700
C1298       C  0.67469682  0.68258946  0.96200982     0.20600
C1299       C  0.69818747  0.70569997  0.97363914    -0.32700
C1300       C  0.72255484  0.69694395  0.99910670     0.01300
C1301       C  0.72489473  0.66439665  0.01059772    -0.24000
C1302       C  0.62704092  0.57391103  0.97338595    -0.28600
C1303       C  0.59967667  0.58325119  0.95228744     0.07000
C1304       C  0.59913344  0.61471842  0.93684954    -0.27300
H1305       H  0.68046536  0.56222014  0.01411165     0.11700
H1306       H  0.72321913  0.60166070  0.03024119     0.12800
H1307       H  0.60379394  0.67656673  0.91256849     0.11900
H1308       H  0.64695931  0.71601044  0.92829330     0.11100
H1309       H  0.69611515  0.73084649  0.96493999     0.16500
H1310       H  0.74374794  0.65753096  0.03006703     0.12400
H1311       H  0.62800809  0.54974643  0.98521196     0.15300
H1312       H  0.57824398  0.62225160  0.92053908     0.15100
C1313       C  0.48838281  0.56475570  0.73087920    -0.17800
C1314       C  0.48636151  0.56495837  0.69286183    -0.20000
C1315       C  0.48076579  0.53597121  0.67358762     0.20700
C1316       C  0.47615245  0.00663776  0.69291414    -0.02900
C1317       C  0.47838680  0.00639982  0.73133115    -0.06000
C1318       C  0.48496168  0.53553920  0.75033368     0.20900
C1319       C  0.97475786  0.97691531  0.75061765     0.19100
C1320       C  0.96803274  0.94811262  0.73139380    -0.17500
C1321       C  0.96569619  0.94836650  0.69337702    -0.19700
C1322       C  0.97012946  0.97741322  0.67384641     0.20600
C1323       C  0.96956691  0.97757080  0.63560965    -0.32700
C1324       C  0.47561349  0.50646623  0.61605078     0.01300
C1325       C  0.48057629  0.53567948  0.63536187    -0.24000
C1326       C  0.48859187  0.53490845  0.78835586    -0.28600
C1327       C  0.48588490  0.50548227  0.80785058     0.07000
C1328       C  0.97846611  0.97664673  0.78867390    -0.27300
H1329       H  0.49318680  0.58739950  0.74504009     0.11700
H1330       H  0.48969872  0.58775029  0.67849038     0.12800
H1331       H  0.96499799  0.92526837  0.74574213     0.11900
H1332       H  0.96094990  0.92571119  0.67920416     0.11100
H1333       H  0.96567423  0.95490907  0.62111201     0.16500
H1334       H  0.48484066  0.55815259  0.62064092     0.12400
H1335       H  0.49391037  0.55735774  0.80270414     0.15300
H1336       H  0.97600089  0.95385331  0.80327768     0.15100
C1337       C  0.56186214  0.99143674  0.16738361    -0.17800
C1338       C  0.56218799  0.99100178  0.20546089    -0.20000
C1339       C  0.53406184  0.99975979  0.22516972     0.20700
C1340       C  0.50550217  0.50963320  0.20631896    -0.02900
C1341       C  0.50512662  0.00994511  0.16784700    -0.06000
C1342       C  0.53336359  0.00056251  0.14829586     0.20900
C1343       C  0.97634676  0.51918159  0.14899664     0.19100
C1344       C  0.94846145  0.52864221  0.16871684    -0.17500
C1345       C  0.94886688  0.52844019  0.20678845    -0.19700
C1346       C  0.97715489  0.51870465  0.22586125     0.20600
C1347       C  0.47737893  0.51737021  0.26406626    -0.32700
C1348       C  0.00548815  0.50671710  0.28312568     0.01300
C1349       C  0.03385755  0.99832850  0.26333588    -0.24000
C1350       C  0.53248595  0.00003443  0.11005834    -0.28600
C1351       C  0.50363063  0.50854444  0.09096840     0.07000
C1352       C  0.97578262  0.51840757  0.11080274    -0.27300
H1353       H  0.58380650  0.98428253  0.15285625     0.11700
H1354       H  0.58439448  0.98349641  0.21951167     0.12800
H1355       H  0.92618372  0.53593728  0.15467285     0.11900
H1356       H  0.92691336  0.53556657  0.22131887     0.11100
H1357       H  0.45538744  0.52394797  0.27887203     0.16500
H1358       H  0.05580445  0.99037822  0.27759459     0.12400
H1359       H  0.55415838  0.99254860  0.09521483     0.15300
H1360       H  0.95347225  0.52528023  0.09653951     0.15100
C1361       C  0.70195595  0.78457513  0.70044590    -0.17800
C1362       C  0.70135536  0.78256996  0.66247892    -0.20000
C1363       C  0.72750641  0.76814312  0.64367531     0.20700
C1364       C  0.75483925  0.75616649  0.66327331    -0.02900
C1365       C  0.75537663  0.75804588  0.70160517    -0.06000
C1366       C  0.72868755  0.77208993  0.72024935     0.20900
C1367       C  0.78236243  0.74540074  0.72125633     0.19100
C1368       C  0.80887417  0.73168013  0.70238608    -0.17500
C1369       C  0.80843706  0.72999025  0.66439295    -0.19700
C1370       C  0.78141511  0.74188612  0.64463767     0.20600
C1371       C  0.78034724  0.73937046  0.60662857    -0.32700
C1372       C  0.75286439  0.75058803  0.58692760     0.01300
C1373       C  0.72664316  0.76516870  0.60568509    -0.24000
C1374       C  0.72888585  0.77290341  0.75837566    -0.28600
C1375       C  0.75528490  0.75956130  0.77829958     0.07000
C1376       C  0.78213333  0.74621567  0.75941441    -0.27300
H1377       H  0.68132695  0.79553995  0.71434922     0.11700
H1378       H  0.68026371  0.79205528  0.64782754     0.12800
H1379       H  0.82985156  0.72197285  0.71704349     0.11900
H1380       H  0.82907921  0.71904812  0.65047949     0.11100
H1381       H  0.80073140  0.72818771  0.59245598     0.16500
H1382       H  0.70552242  0.77423573  0.59073307     0.12400
H1383       H  0.70808413  0.78334965  0.77248787     0.15300
H1384       H  0.80274488  0.73609358  0.77436958     0.15100
C1385       C  0.83197560  0.62623588  0.96529250    -0.17800
C1386       C  0.80864730  0.64986874  0.95559610    -0.20000
C1387       C  0.81699167  0.67536276  0.93186794     0.20700
C1388       C  0.84948337  0.67741537  0.91856988    -0.02900
C1389       C  0.87302081  0.65365929  0.92845985    -0.06000
C1390       C  0.86412638  0.62763954  0.95150216     0.20900
C1391       C  0.90514071  0.65537663  0.91422975     0.19100
C1392       C  0.91376443  0.68113850  0.89109638    -0.17500
C1393       C  0.89045502  0.70444774  0.88108907    -0.19700
C1394       C  0.85819403  0.70250813  0.89422710     0.20600
C1395       C  0.83420326  0.72442485  0.88216197    -0.32700
C1396       C  0.80154801  0.72189434  0.89410227     0.01300
C1397       C  0.79320920  0.69796890  0.91988878    -0.24000
C1398       C  0.88718088  0.60296419  0.95922682    -0.28600
C1399       C  0.91889694  0.60388603  0.94386762     0.07000
C1400       C  0.92780731  0.63072265  0.92221309    -0.27300
H1401       H  0.82466808  0.60648786  0.98307118     0.11700
H1402       H  0.78388112  0.64779420  0.96603519     0.12800
H1403       H  0.93835462  0.68283766  0.88004319     0.11900
H1404       H  0.89750411  0.72366009  0.86246733     0.11100
H1405       H  0.84064224  0.74285111  0.86227186     0.16500
H1406       H  0.76793097  0.69568606  0.92875889     0.12400
H1407       H  0.88000747  0.58247097  0.97600716     0.15300
H1408       H  0.95217460  0.63195611  0.91046447     0.15100
C1409       C  0.66314270  0.87908708  0.96921199    -0.17800
C1410       C  0.68687839  0.85559042  0.96044866    -0.20000
C1411       C  0.68127574  0.83328414  0.93212635     0.20700
C1412       C  0.65100464  0.83427114  0.91312402    -0.02900
C1413       C  0.62705286  0.85790355  0.92202735    -0.06000
C1414       C  0.63327538  0.88072465  0.94989059     0.20900
C1415       C  0.59724872  0.85921368  0.90229598     0.19100
C1416       C  0.59132973  0.83664471  0.87440067    -0.17500
C1417       C  0.61504393  0.81346202  0.86544570    -0.19700
C1418       C  0.64504953  0.81236523  0.88431664     0.20600
C1419       C  0.66970478  0.79068408  0.87370636    -0.32700
C1420       C  0.70047889  0.79049096  0.89121548     0.01300
C1421       C  0.70581481  0.81104107  0.92130789    -0.24000
C1422       C  0.60985937  0.90515139  0.95729142    -0.28600
C1423       C  0.58028164  0.90702872  0.93711525     0.07000
C1424       C  0.57413470  0.88350817  0.91007954    -0.27300
H1425       H  0.66836864  0.89631223  0.99078229     0.11700
H1426       H  0.70990147  0.85527772  0.97538426     0.12800
H1427       H  0.56855545  0.83729017  0.85903699     0.11900
H1428       H  0.61014573  0.79675022  0.84327753     0.11100
H1429       H  0.66547430  0.77480868  0.85058166     0.16500
H1430       H  0.72963860  0.81121887  0.93464798     0.12400
H1431       H  0.61496640  0.92302756  0.97824140     0.15300
H1432       H  0.55158088  0.88450768  0.89432758     0.15100
loop_ 
_geom_bond_atom_site_label_1 
_geom_bond_atom_site_label_2 
_geom_bond_distance 
_geom_bond_site_symmetry_2 
_ccdc_geom_bond_type 
C1            N2   1.366       .  A
C1            N6   1.360       .  A
C1          C322   1.478       .  S
N2            C3   1.366       .  A
C3            N4   1.358       .  A
C3          C346   1.480       .  S
N4            C5   1.353       .  A
C5            N6   1.355       .  A
C5          C301   1.486       .  S
Zn7          O12   2.037   1_655  S
Zn7          O16   2.034       .  S
Zn7         O739   2.041       .  S
Zn7         O369   1.968       .  S
Zn8          O13   2.019   1_565  S
Zn8          O19   2.036   1_556  S
Zn8         O373   2.042       .  S
Zn8          O11   1.969   1_465  S
Zn9          O14   2.035   1_455  S
Zn9          O17   2.049       .  S
Zn9         O736   2.016   1_455  S
Zn9          O11   1.971   1_455  S
Zn10         O18   2.040       .  S
Zn10         O21   2.029   1_556  S
Zn10        O380   2.031   1_545  S
Zn10        O727   1.971       .  S
O11        Zn365   1.968   1_545  S
O11        Zn726   1.971       .  S
O12          C24   1.278       .  A
O13          C25   1.275       .  A
O14          C26   1.277       .  A
O15        Zn366   2.042       .  S
O15          C24   1.276       .  A
O16         C384   1.276       .  A
O17          C25   1.276       .  A
O18          C27   1.275       .  A
O19          C28   1.277   1_565  A
O20        Zn725   2.016       .  S
O20          C27   1.275       .  A
O21         C744   1.276       .  A
O22        Zn368   2.031       .  S
O22          C29   1.276       .  A
O23        Zn723   2.041       .  S
O23          C29   1.276       .  A
C24         C349   1.494       .  S
C25         C229   1.491       .  S
C26         C253   1.491       .  S
C26         O374   1.276   1_545  A
C27         C325   1.489       .  S
C28         C277   1.490       .  S
C28         O737   1.276   1_455  A
C29         C202   1.492       .  S
C30          N31   1.360       .  A
C30          N35   1.367       .  A
C30         C226   1.480   1_554  S
N31          C32   1.354       .  A
C32          N33   1.354       .  A
C32         C181   1.486       .  S
N33          C34   1.359       .  A
C34          N35   1.366       .  A
C34         C205   1.482       .  S
C36          N37   1.359       .  A
C36          N41   1.365       .  A
C36         C133   1.483       .  S
N37        C1112   1.356       .  A
C38          N39   1.357       .  A
C38        N1111   1.356   1_545  A
C38         C274   1.489       .  S
N39          C40   1.361       .  A
C40        N1115   1.365   1_545  A
C40         C154   1.477       .  S
N41        C1114   1.365   1_455  A
Zn42         O47   2.035       .  S
Zn42         O51   2.028       .  S
Zn42         O58   2.004       .  S
Zn42         O46   1.960       .  S
Zn43         O48   2.010       .  S
Zn43         O50   2.032       .  S
Zn43         O54   2.033       .  S
Zn43         O46   1.967       .  S
Zn44         O49   2.038       .  S
Zn44         O52   2.021       .  S
Zn44         O55   2.032       .  S
Zn44         O46   1.965       .  S
Zn45         O53   2.057       .  S
Zn45         O56   2.037       .  S
Zn45         O57   2.039       .  S
Zn45         O46   1.979       .  S
O47          C59   1.274       .  A
O48          C60   1.274       .  A
O49          C61   1.275       .  A
O50          C59   1.275       .  A
O51          C61   1.275       .  A
O52          C60   1.276       .  A
O53          C62   1.278       .  A
O54          C63   1.275       .  A
O55          C62   1.277       .  A
O56          C63   1.277       .  A
O57          C64   1.277       .  A
O58          C64   1.275       .  A
C59         C106   1.493       .  S
C60         C298   1.481       .  S
C61         C130   1.492       .  S
C62          C82   1.497       .  S
C63         C157   1.492       .  S
C64         C178   1.484       .  S
C65          N70   1.360       .  A
C65         N782   1.365       .  A
C65         C109   1.480       .  S
N66         C781   1.365       .  A
N66         C425   1.366       .  A
C67          N68   1.361       .  A
C67         N424   1.366       .  A
C67          C85   1.486   1_655  S
N68          C69   1.357       .  A
C69        N1144   1.356   1_545  A
C69         C250   1.488       .  S
N70        C1143   1.356       .  A
C71          C72   1.398       .  A
C71          C76   1.403       .  A
C71          H87   1.083       .  S
C72          C73   1.404       .  A
C72          H88   1.084       .  S
C73          C83   1.404       .  A
C73          C74   1.411       .  A
C74          C80   1.411       .  A
C74          C75   1.417       .  A
C75          C77   1.413       .  A
C75          C76   1.411       .  A
C76          C84   1.402       .  A
C77          C86   1.412       .  A
C77          C78   1.405       .  A
C78          C79   1.404       .  A
C78          H89   1.084       .  S
C79          C80   1.406       .  A
C79          H90   1.083       .  S
C80          C81   1.412       .  A
C81          C82   1.413       .  A
C81          H91   1.084       .  S
C82          C83   1.410       .  A
C83          H92   1.084       .  S
C84          C85   1.407       .  A
C84          H93   1.084       .  S
C85          C86   1.409       .  A
C86          H94   1.084       .  S
C95          C96   1.403       .  A
C95         C100   1.405       .  A
C95         H111   1.084       .  S
C96          C97   1.406       .  A
C96         H112   1.083       .  S
C97         C107   1.410       .  A
C97          C98   1.411       .  A
C98         C104   1.412       .  A
C98          C99   1.416       .  A
C99         C101   1.411       .  A
C99         C100   1.414       .  A
C100        C108   1.411       .  A
C101        C110   1.402       .  A
C101        C102   1.403       .  A
C102        C103   1.398       .  A
C102        H113   1.083       .  S
C103        C104   1.403       .  A
C103        H114   1.084       .  S
C104        C105   1.404       .  A
C105        C106   1.409       .  A
C105        H115   1.084       .  S
C106        C107   1.412       .  A
C107        H116   1.084       .  S
C108        C109   1.407       .  A
C108        H117   1.084       .  S
C109        C110   1.405       .  A
C110        H118   1.085       .  S
C119        C120   1.398       .  A
C119        C124   1.403       .  A
C119        H135   1.084       .  S
C120        C121   1.403       .  A
C120        H136   1.083       .  S
C121        C131   1.403       .  A
C121        C122   1.412       .  A
C122        C128   1.411       .  A
C122        C123   1.415       .  A
C123        C125   1.414       .  A
C123        C124   1.410       .  A
C124        C132   1.401       .  A
C125        C134   1.411       .  A
C125        C126   1.405       .  A
C126        C127   1.403       .  A
C126        H137   1.084       .  S
C127        C128   1.406       .  A
C127        H138   1.084       .  S
C128        C129   1.409       .  A
C129        C130   1.412       .  A
C129        H139   1.084       .  S
C130        C131   1.408       .  A
C131        H140   1.084       .  S
C132        C133   1.407       .  A
C132        H141   1.085       .  S
C133        C134   1.408       .  A
C134        H142   1.084       .  S
C143        C144   1.399       .  A
C143        C148   1.404       .  A
C143        H159   1.084       .  S
C144        C145   1.403       .  A
C144        H160   1.083       .  S
C145        C155   1.403       .  A
C145        C146   1.411       .  A
C146        C152   1.413       .  A
C146        C147   1.415       .  A
C147        C149   1.411       .  A
C147        C148   1.411       .  A
C148        C156   1.405       .  A
C149        C158   1.408       .  A
C149        C150   1.405       .  A
C150        C151   1.402       .  A
C150        H161   1.083       .  S
C151        C152   1.404       .  A
C151        H162   1.083       .  S
C152        C153   1.408       .  A
C153        C154   1.405       .  A
C153        H163   1.083       .  S
C154        C155   1.405       .  A
C155        H164   1.084       .  S
C156        C157   1.409       .  A
C156        H165   1.084       .  S
C157        C158   1.411       .  A
C158        H166   1.084       .  S
C167        C168   1.396       .  A
C167        C172   1.402       .  A
C167        H183   1.084       .  S
C168        C169   1.403       .  A
C168        H184   1.083       .  S
C169        C179   1.398       .  A
C169        C170   1.410       .  A
C170        C176   1.412       .  A
C170        C171   1.412       .  A
C171        C173   1.411       .  A
C171        C172   1.411       .  A
C172        C180   1.400       .  A
C173        C182   1.406       .  A
C173        C174   1.405       .  A
C174        C175   1.402       .  A
C174        H185   1.083       .  S
C175        C176   1.404       .  A
C175        H186   1.084       .  S
C176        C177   1.407       .  A
C177        C178   1.409       .  A
C177        H187   1.084       .  S
C178        C179   1.407       .  A
C179        H188   1.084       .  S
C180        C181   1.407       .  A
C180        H189   1.084       .  S
C181        C182   1.411       .  A
C182        H190   1.084       .  S
C191        C192   1.403       .  A
C191        C196   1.404       .  A
C191        H207   1.084       .  S
C192        C193   1.406       .  A
C192        H208   1.083       .  S
C193        C203   1.409       .  A
C193        C194   1.411       .  A
C194        C200   1.412       .  A
C194        C195   1.415       .  A
C195        C197   1.410   1_556  A
C195        C196   1.414       .  A
C196        C204   1.411       .  A
C197        C206   1.400       .  A
C197        C198   1.403       .  A
C198        C199   1.398       .  A
C198        H209   1.084       .  S
C199        C200   1.403   1_554  A
C199        H210   1.084       .  S
C200        C201   1.404       .  A
C201        C202   1.409       .  A
C201        H211   1.084   1_556  S
C202        C203   1.412       .  A
C203        H212   1.084       .  S
C204        C205   1.407   1_556  A
C204        H213   1.084       .  S
C205        C206   1.407       .  A
C206        H214   1.085       .  S
C215        C216   1.397       .  A
C215        C220   1.403   1_554  A
C215        H231   1.084       .  S
C216        C217   1.402   1_554  A
C216        H232   1.083       .  S
C217        C227   1.399   1_556  A
C217        C218   1.411       .  A
C218        C224   1.413       .  A
C218        C219   1.415       .  A
C219        C221   1.412       .  A
C219        C220   1.411       .  A
C220        C228   1.401       .  A
C221        C230   1.412       .  A
C221        C222   1.406       .  A
C222        C223   1.404       .  A
C222        H233   1.083       .  S
C223        C224   1.405       .  A
C223        H234   1.084       .  S
C224        C225   1.411       .  A
C225        C226   1.408       .  A
C225        H235   1.085       .  S
C226        C227   1.405   1_556  A
C227        H236   1.085       .  S
C228        C229   1.408       .  A
C228        H237   1.084       .  S
C229        C230   1.412       .  A
C230        H238   1.084       .  S
C239        C240   1.400       .  A
C239        C244   1.404       .  A
C239        H255   1.083       .  S
C240        C241   1.404       .  A
C240        H256   1.084       .  S
C241        C251   1.406       .  A
C241        C600   1.411       .  A
C242        C243   1.415       .  A
C242        C599   1.411       .  A
C242        C964   1.411       .  A
C243        C961   1.411       .  A
C243        C602   1.411       .  A
C244        C252   1.405       .  A
C244        C601   1.411       .  A
C245        C254   1.407       .  A
C245        C246   1.404       .  A
C245        C959   1.411       .  A
C246        C247   1.401       .  A
C246        H257   1.084       .  S
C247        C248   1.404       .  A
C247        H258   1.083       .  S
C248        C249   1.406       .  A
C248        C958   1.411       .  A
C249       C1324   1.410       .  A
C249        H259   1.084       .  S
C250        C251   1.408       .  A
C250       C1323   1.410   1_545  A
C251        H260   1.084       .  S
C252        C253   1.410       .  A
C252        H261   1.084       .  S
C253       C1328   1.410   1_545  A
C254       C1327   1.410       .  A
C254        H262   1.084       .  S
C263        C264   1.400       .  A
C263        C268   1.404       .  A
C263        H279   1.083       .  S
C264        C265   1.404       .  A
C264        H280   1.084       .  S
C265        C991   1.405       .  A
C265        C624   1.410       .  A
C266        C623   1.410   1_545  A
C266        C988   1.412   1_455  A
C266        C625   1.415       .  A
C267        C268   1.412       .  A
C267        C624   1.415       .  A
C267       C1343   1.411   1_455  A
C268        C276   1.406       .  A
C269        C278   1.405       .  A
C269        C270   1.404       .  A
C269       C1341   1.411       .  A
C270        C271   1.400       .  A
C270        H281   1.084       .  S
C271        C272   1.404       .  A
C271        H282   1.083       .  S
C272        C982   1.412       .  A
C272        C989   1.406       .  A
C273        C988   1.406       .  A
C273        C990   1.409   1_655  A
C273        H283   1.084       .  S
C274        C989   1.409       .  A
C274        C633   1.410   1_545  A
C275        C981   1.405       .  A
C275        C632   1.410       .  A
C275        H284   1.084       .  S
C276        C635   1.410       .  A
C276        H285   1.084       .  S
C277        C634   1.410       .  A
C277        C994   1.410   1_455  A
C278        C993   1.410       .  A
C278        H286   1.084       .  S
C287        C288   1.399       .  A
C287        C292   1.404       .  A
C287        H303   1.083       .  S
C288        C289   1.403       .  A
C288        H304   1.084       .  S
C289        C299   1.403       .  A
C289        C290   1.412       .  A
C290        C296   1.411       .  A
C290        C291   1.412       .  A
C291        C293   1.411       .  A
C291        C292   1.410       .  A
C292        C300   1.402       .  A
C293        C302   1.404       .  A
C293        C294   1.403       .  A
C294        C295   1.399       .  A
C294        H305   1.084       .  S
C295        C296   1.403       .  A
C295        H306   1.083       .  S
C296        C297   1.402       .  A
C297        C298   1.408       .  A
C297        H307   1.084       .  S
C298        C299   1.407       .  A
C299        H308   1.085       .  S
C300        C301   1.409       .  A
C300        H309   1.083       .  S
C301        C302   1.408       .  A
C302        H310   1.084       .  S
C311        C312   1.403       .  A
C311        C316   1.406       .  A
C311        H327   1.084       .  S
C312        C313   1.405       .  A
C312        H328   1.083       .  S
C313        C323   1.411       .  A
C313        C314   1.414       .  A
C314        C320   1.411       .  A
C314        C315   1.414       .  A
C315        C317   1.411       .  A
C315        C316   1.411       .  A
C316        C324   1.410       .  A
C317        C326   1.401       .  A
C317        C318   1.403       .  A
C318        C319   1.397       .  A
C318        H329   1.083       .  S
C319        C320   1.402       .  A
C319        H330   1.084       .  S
C320        C321   1.399       .  A
C321        C322   1.405       .  A
C321        H331   1.085       .  S
C322        C323   1.408       .  A
C323        H332   1.084       .  S
C324        C325   1.411       .  A
C324        H333   1.084       .  S
C325        C326   1.408       .  A
C326        H334   1.084       .  S
C335        C336   1.404       .  A
C335        C340   1.407       .  A
C335        H351   1.083       .  S
C336        C337   1.405       .  A
C336        H352   1.084       .  S
C337        C347   1.412       .  A
C337        C338   1.414       .  A
C338        C344   1.410       .  A
C338        C339   1.416       .  A
C339        C341   1.412       .  A
C339        C340   1.411       .  A
C340        C348   1.412       .  A
C341        C350   1.402       .  A
C341        C342   1.403       .  A
C342        C343   1.397       .  A
C342        H353   1.084       .  S
C343        C344   1.403       .  A
C343        H354   1.084       .  S
C344        C345   1.399       .  A
C345        C346   1.406       .  A
C345        H355   1.085       .  S
C346        C347   1.408       .  A
C347        H356   1.085       .  S
C348        C349   1.413       .  A
C348        H357   1.084       .  S
C349        C350   1.408       .  A
C350        H358   1.084       .  S
C359        N360   1.366       .  A
C359        N364   1.360       .  A
C359        C680   1.478       .  S
N360        C361   1.366       .  A
C361        N362   1.358       .  A
C361        C704   1.480       .  S
N362        C363   1.353       .  A
C363        N364   1.355       .  A
C363        C659   1.486       .  S
Zn365       O370   2.037   1_655  S
Zn365       O374   2.034       .  S
Zn365      O1097   2.041       .  S
Zn366       O371   2.019       .  S
Zn366       O377   2.036   1_556  S
Zn366       O369   1.969   1_455  S
Zn367       O372   2.035   1_455  S
Zn367       O375   2.049       .  S
Zn367      O1094   2.016   1_455  S
Zn367       O369   1.971   1_455  S
Zn368       O376   2.040       .  S
Zn368       O379   2.029   1_556  S
Zn368      O1085   1.971       .  S
O369      Zn1084   1.971       .  S
O370        C382   1.278       .  A
O371        C383   1.275       .  A
O372        C384   1.277       .  A
O373        C382   1.276       .  A
O375        C383   1.276       .  A
O376        C385   1.275       .  A
O377        C386   1.277       .  A
O378      Zn1083   2.016       .  S
O378        C385   1.275       .  A
O379       C1102   1.276       .  A
O380        C387   1.276       .  A
O381      Zn1081   2.041       .  S
O381        C387   1.276       .  A
C382        C707   1.494       .  S
C383        C587   1.491       .  S
C384        C611   1.491       .  S
C385        C683   1.489       .  S
C386        C635   1.490       .  S
C386       O1095   1.276   1_455  A
C387        C560   1.492       .  S
C388        N389   1.360       .  A
C388        N393   1.367       .  A
C388        C584   1.480   1_554  S
N389        C390   1.354       .  A
C390        N391   1.354       .  A
C390        C539   1.486       .  S
N391        C392   1.359       .  A
C392        N393   1.366       .  A
C392        C563   1.482       .  S
C394        N395   1.359       .  A
C394        N399   1.365       .  A
C394        C491   1.483       .  S
N395        C754   1.356   1_565  A
C396        N753   1.356       .  A
C396        N397   1.357       .  A
C396        C632   1.489       .  S
N397        C398   1.361       .  A
C398        N757   1.365       .  A
C398        C512   1.477       .  S
N399        C756   1.365   1_465  A
Zn400       O405   2.035       .  S
Zn400       O409   2.028       .  S
Zn400       O416   2.004       .  S
Zn400       O404   1.960       .  S
Zn401       O406   2.010       .  S
Zn401       O408   2.032       .  S
Zn401       O412   2.033       .  S
Zn401       O404   1.967       .  S
Zn402       O407   2.038       .  S
Zn402       O410   2.021       .  S
Zn402       O413   2.032       .  S
Zn402       O404   1.965       .  S
Zn403       O411   2.057       .  S
Zn403       O414   2.037       .  S
Zn403       O415   2.039       .  S
Zn403       O404   1.979       .  S
O405        C417   1.274       .  A
O406        C418   1.274       .  A
O407        C419   1.275       .  A
O408        C417   1.275       .  A
O409        C419   1.275       .  A
O410        C418   1.276       .  A
O411        C420   1.278       .  A
O412        C421   1.275       .  A
O413        C420   1.277       .  A
O414        C421   1.277       .  A
O415        C422   1.277       .  A
O416        C422   1.275       .  A
C417        C464   1.493       .  S
C418        C656   1.481       .  S
C419        C488   1.492       .  S
C420        C440   1.497       .  S
C421        C515   1.492       .  S
C422        C536   1.484       .  S
C423       N1140   1.365   1_565  A
C423        N428   1.360       .  A
C423        C467   1.480       .  S
N424       C1139   1.365   1_545  A
C425        N426   1.361       .  A
C425        C443   1.486   1_655  S
N426        C427   1.357       .  A
C427        N786   1.356       .  A
C427        C608   1.488       .  S
N428        C785   1.356   1_565  A
C429        C430   1.398       .  A
C429        C434   1.403       .  A
C429        H445   1.083       .  S
C430        C431   1.404       .  A
C430        H446   1.084       .  S
C431        C441   1.404       .  A
C431        C432   1.411       .  A
C432        C438   1.411       .  A
C432        C433   1.417       .  A
C433        C435   1.413       .  A
C433        C434   1.411       .  A
C434        C442   1.402       .  A
C435        C444   1.412       .  A
C435        C436   1.405       .  A
C436        C437   1.404       .  A
C436        H447   1.084       .  S
C437        C438   1.406       .  A
C437        H448   1.083       .  S
C438        C439   1.412       .  A
C439        C440   1.413       .  A
C439        H449   1.084       .  S
C440        C441   1.410       .  A
C441        H450   1.084       .  S
C442        C443   1.407       .  A
C442        H451   1.084       .  S
C443        C444   1.409       .  A
C444        H452   1.084       .  S
C453        C454   1.403       .  A
C453        C458   1.405       .  A
C453        H469   1.084       .  S
C454        C455   1.406       .  A
C454        H470   1.083       .  S
C455        C465   1.410       .  A
C455        C456   1.411       .  A
C456        C462   1.412       .  A
C456        C457   1.416       .  A
C457        C459   1.411       .  A
C457        C458   1.414       .  A
C458        C466   1.411       .  A
C459        C468   1.402       .  A
C459        C460   1.403       .  A
C460        C461   1.398       .  A
C460        H471   1.083       .  S
C461        C462   1.403       .  A
C461        H472   1.084       .  S
C462        C463   1.404       .  A
C463        C464   1.409       .  A
C463        H473   1.084       .  S
C464        C465   1.412       .  A
C465        H474   1.084       .  S
C466        C467   1.407       .  A
C466        H475   1.084       .  S
C467        C468   1.405       .  A
C468        H476   1.085       .  S
C477        C478   1.398       .  A
C477        C482   1.403       .  A
C477        H493   1.084       .  S
C478        C479   1.403       .  A
C478        H494   1.083       .  S
C479        C489   1.403       .  A
C479        C480   1.412       .  A
C480        C486   1.411       .  A
C480        C481   1.415       .  A
C481        C483   1.414       .  A
C481        C482   1.410       .  A
C482        C490   1.401       .  A
C483        C492   1.411       .  A
C483        C484   1.405       .  A
C484        C485   1.403       .  A
C484        H495   1.084       .  S
C485        C486   1.406       .  A
C485        H496   1.084       .  S
C486        C487   1.409       .  A
C487        C488   1.412       .  A
C487        H497   1.084       .  S
C488        C489   1.408       .  A
C489        H498   1.084       .  S
C490        C491   1.407       .  A
C490        H499   1.085       .  S
C491        C492   1.408       .  A
C492        H500   1.084       .  S
C501        C502   1.399       .  A
C501        C506   1.404       .  A
C501        H517   1.084       .  S
C502        C503   1.403       .  A
C502        H518   1.083       .  S
C503        C513   1.403       .  A
C503        C504   1.411       .  A
C504        C510   1.413       .  A
C504        C505   1.415       .  A
C505        C507   1.411       .  A
C505        C506   1.411       .  A
C506        C514   1.405       .  A
C507        C516   1.408       .  A
C507        C508   1.405       .  A
C508        C509   1.402       .  A
C508        H519   1.083       .  S
C509        C510   1.404       .  A
C509        H520   1.083       .  S
C510        C511   1.408       .  A
C511        C512   1.405       .  A
C511        H521   1.083       .  S
C512        C513   1.405       .  A
C513        H522   1.084       .  S
C514        C515   1.409       .  A
C514        H523   1.084       .  S
C515        C516   1.411       .  A
C516        H524   1.084       .  S
C525        C526   1.396       .  A
C525        C530   1.402       .  A
C525        H541   1.084       .  S
C526        C527   1.403       .  A
C526        H542   1.083       .  S
C527        C537   1.398       .  A
C527        C528   1.410       .  A
C528        C534   1.412       .  A
C528        C529   1.412       .  A
C529        C531   1.411       .  A
C529        C530   1.411       .  A
C530        C538   1.400       .  A
C531        C540   1.406       .  A
C531        C532   1.405       .  A
C532        C533   1.402       .  A
C532        H543   1.083       .  S
C533        C534   1.404       .  A
C533        H544   1.084       .  S
C534        C535   1.407       .  A
C535        C536   1.409       .  A
C535        H545   1.084       .  S
C536        C537   1.407       .  A
C537        H546   1.084       .  S
C538        C539   1.407       .  A
C538        H547   1.084       .  S
C539        C540   1.411       .  A
C540        H548   1.084       .  S
C549        C550   1.403       .  A
C549        C554   1.404       .  A
C549        H565   1.084       .  S
C550        C551   1.406       .  A
C550        H566   1.083       .  S
C551        C561   1.409       .  A
C551        C552   1.411       .  A
C552        C558   1.412       .  A
C552        C553   1.415       .  A
C553        C555   1.410   1_556  A
C553        C554   1.414       .  A
C554        C562   1.411       .  A
C555        C564   1.400       .  A
C555        C556   1.403       .  A
C556        C557   1.398       .  A
C556        H567   1.084       .  S
C557        C558   1.403   1_554  A
C557        H568   1.084       .  S
C558        C559   1.404       .  A
C559        C560   1.409       .  A
C559        H569   1.084   1_556  S
C560        C561   1.412       .  A
C561        H570   1.084       .  S
C562        C563   1.407   1_556  A
C562        H571   1.084       .  S
C563        C564   1.407       .  A
C564        H572   1.085       .  S
C573        C574   1.397       .  A
C573        C578   1.403   1_554  A
C573        H589   1.084       .  S
C574        C575   1.402   1_554  A
C574        H590   1.083       .  S
C575        C585   1.399   1_556  A
C575        C576   1.411       .  A
C576        C582   1.413       .  A
C576        C577   1.415       .  A
C577        C579   1.412       .  A
C577        C578   1.411       .  A
C578        C586   1.401       .  A
C579        C588   1.412       .  A
C579        C580   1.406       .  A
C580        C581   1.404       .  A
C580        H591   1.083       .  S
C581        C582   1.405       .  A
C581        H592   1.084       .  S
C582        C583   1.411       .  A
C583        C584   1.408       .  A
C583        H593   1.085       .  S
C584        C585   1.405   1_556  A
C585        H594   1.085       .  S
C586        C587   1.408       .  A
C586        H595   1.084       .  S
C587        C588   1.412       .  A
C588        H596   1.084       .  S
C597        C598   1.400       .  A
C597        C602   1.404       .  A
C597        H613   1.083       .  S
C598        C599   1.404       .  A
C598        H614   1.084       .  S
C599        C609   1.406       .  A
C600       C1322   1.411   1_545  A
C600        C601   1.415       .  A
C601       C1319   1.411   1_545  A
C602        C610   1.405       .  A
C603       C1317   1.411   1_565  A
C603        C612   1.407       .  A
C603        C604   1.404       .  A
C604        C605   1.401       .  A
C604        H615   1.084       .  S
C605        C606   1.404       .  A
C605        H616   1.083       .  S
C606       C1316   1.411   1_565  A
C606        C607   1.406       .  A
C607        C966   1.410   1_565  A
C607        H617   1.084       .  S
C608        C965   1.410       .  A
C608        C609   1.408       .  A
C609        H618   1.084       .  S
C610        C611   1.410       .  A
C610        H619   1.084       .  S
C611        C970   1.410       .  A
C612        C969   1.410   1_565  A
C612        H620   1.084       .  S
C621        C622   1.400       .  A
C621        C626   1.404   1_565  A
C621        H637   1.083       .  S
C622        C623   1.404       .  A
C622        H638   1.084       .  S
C623       C1349   1.405       .  A
C624       C1346   1.412   1_455  A
C625        C985   1.411   1_455  A
C625        C626   1.412       .  A
C626        C634   1.406       .  A
C627        C983   1.411       .  A
C627        C636   1.405       .  A
C627        C628   1.404       .  A
C628        C629   1.400       .  A
C628        H639   1.084       .  S
C629        C630   1.404       .  A
C629        H640   1.083       .  S
C630       C1340   1.412       .  A
C630       C1347   1.406       .  A
C631       C1346   1.406       .  A
C631       C1348   1.409   1_655  A
C631        H641   1.084       .  S
C632       C1347   1.409       .  A
C633       C1339   1.405       .  A
C633        H642   1.084       .  S
C634        H643   1.084   1_545  S
C635       C1352   1.410   1_455  A
C636       C1351   1.410       .  A
C636        H644   1.084       .  S
C645        C646   1.399       .  A
C645        C650   1.404       .  A
C645        H661   1.083       .  S
C646        C647   1.403       .  A
C646        H662   1.084       .  S
C647        C657   1.403       .  A
C647        C648   1.412       .  A
C648        C654   1.411       .  A
C648        C649   1.412       .  A
C649        C651   1.411       .  A
C649        C650   1.410       .  A
C650        C658   1.402       .  A
C651        C660   1.404       .  A
C651        C652   1.403       .  A
C652        C653   1.399       .  A
C652        H663   1.084       .  S
C653        C654   1.403       .  A
C653        H664   1.083       .  S
C654        C655   1.402       .  A
C655        C656   1.408       .  A
C655        H665   1.084       .  S
C656        C657   1.407       .  A
C657        H666   1.085       .  S
C658        C659   1.409       .  A
C658        H667   1.083       .  S
C659        C660   1.408       .  A
C660        H668   1.084       .  S
C669        C670   1.403       .  A
C669        C674   1.406       .  A
C669        H685   1.084       .  S
C670        C671   1.405       .  A
C670        H686   1.083       .  S
C671        C681   1.411       .  A
C671        C672   1.414       .  A
C672        C678   1.411       .  A
C672        C673   1.414       .  A
C673        C675   1.411       .  A
C673        C674   1.411       .  A
C674        C682   1.410       .  A
C675        C684   1.401       .  A
C675        C676   1.403       .  A
C676        C677   1.397       .  A
C676        H687   1.083       .  S
C677        C678   1.402       .  A
C677        H688   1.084       .  S
C678        C679   1.399       .  A
C679        C680   1.405       .  A
C679        H689   1.085       .  S
C680        C681   1.408       .  A
C681        H690   1.084       .  S
C682        C683   1.411       .  A
C682        H691   1.084       .  S
C683        C684   1.408       .  A
C684        H692   1.084       .  S
C693        C694   1.404       .  A
C693        C698   1.407       .  A
C693        H709   1.083       .  S
C694        C695   1.405       .  A
C694        H710   1.084       .  S
C695        C705   1.412       .  A
C695        C696   1.414       .  A
C696        C702   1.410       .  A
C696        C697   1.416       .  A
C697        C699   1.412       .  A
C697        C698   1.411       .  A
C698        C706   1.412       .  A
C699        C708   1.402       .  A
C699        C700   1.403       .  A
C700        C701   1.397       .  A
C700        H711   1.084       .  S
C701        C702   1.403       .  A
C701        H712   1.084       .  S
C702        C703   1.399       .  A
C703        C704   1.406       .  A
C703        H713   1.085       .  S
C704        C705   1.408       .  A
C705        H714   1.085       .  S
C706        C707   1.413       .  A
C706        H715   1.084       .  S
C707        C708   1.408       .  A
C708        H716   1.084       .  S
C717        N718   1.366       .  A
C717        N722   1.360       .  A
C717       C1038   1.478       .  S
N718        C719   1.366       .  A
C719        N720   1.358       .  A
C719       C1062   1.480       .  S
N720        C721   1.353       .  A
C721        N722   1.355       .  A
C721       C1017   1.486       .  S
Zn723       O728   2.037       .  S
Zn723       O732   2.034       .  S
Zn723      O1085   1.968       .  S
Zn724       O729   2.019   1_565  S
Zn724      O1089   2.042       .  S
Zn724       O735   2.036   1_556  S
Zn724       O727   1.969   1_565  S
Zn725       O730   2.035       .  S
Zn725       O733   2.049       .  S
Zn725       O727   1.971       .  S
Zn726       O734   2.040       .  S
Zn726       O737   2.029   1_556  S
Zn726      O1096   2.031   1_545  S
O727      Zn1081   1.968   1_545  S
O728        C740   1.278       .  A
O729        C741   1.275       .  A
O730        C742   1.277       .  A
O731      Zn1082   2.042       .  S
O731        C740   1.276       .  A
O732       C1100   1.276       .  A
O733        C741   1.276       .  A
O734        C743   1.275       .  A
O735        C744   1.277   1_565  A
O736        C743   1.275       .  A
O738      Zn1084   2.031       .  S
O738        C745   1.276       .  A
O739        C745   1.276       .  A
C740       C1065   1.494       .  S
C741        C945   1.491       .  S
C742        C969   1.491       .  S
C742       O1090   1.276   1_545  A
C743       C1041   1.489       .  S
C744        C993   1.490       .  S
C745        C918   1.492       .  S
C746        N747   1.360       .  A
C746        N751   1.367       .  A
C746        C942   1.480   1_554  S
N747        C748   1.354       .  A
C748        N749   1.354       .  A
C748        C897   1.486       .  S
N749        C750   1.359       .  A
C750        N751   1.366       .  A
C750        C921   1.482       .  S
C752        N753   1.359       .  A
C752        N757   1.365       .  A
C752        C849   1.483       .  S
C754        N755   1.357   1_455  A
C754        C990   1.489       .  S
N755        C756   1.361       .  A
C756        C870   1.477       .  S
Zn758       O763   2.035       .  S
Zn758       O767   2.028       .  S
Zn758       O774   2.004       .  S
Zn758       O762   1.960       .  S
Zn759       O764   2.010       .  S
Zn759       O766   2.032       .  S
Zn759       O770   2.033       .  S
Zn759       O762   1.967       .  S
Zn760       O765   2.038       .  S
Zn760       O768   2.021       .  S
Zn760       O771   2.032       .  S
Zn760       O762   1.965       .  S
Zn761       O769   2.057       .  S
Zn761       O772   2.037       .  S
Zn761       O773   2.039       .  S
Zn761       O762   1.979       .  S
O763        C775   1.274       .  A
O764        C776   1.274       .  A
O765        C777   1.275       .  A
O766        C775   1.275       .  A
O767        C777   1.275       .  A
O768        C776   1.276       .  A
O769        C778   1.278       .  A
O770        C779   1.275       .  A
O771        C778   1.277       .  A
O772        C779   1.277       .  A
O773        C780   1.277       .  A
O774        C780   1.275       .  A
C775        C822   1.493       .  S
C776       C1014   1.481       .  S
C777        C846   1.492       .  S
C778        C798   1.497       .  S
C779        C873   1.492       .  S
C780        C894   1.484       .  S
C781        N786   1.360       .  A
C781        C825   1.480       .  S
N782       C1141   1.366       .  A
C783       N1140   1.366       .  A
C783        N784   1.361       .  A
C783        C801   1.486       .  S
N784        C785   1.357       .  A
C785        C966   1.488       .  S
C787        C788   1.398       .  A
C787        C792   1.403       .  A
C787        H803   1.083       .  S
C788        C789   1.404       .  A
C788        H804   1.084       .  S
C789        C799   1.404       .  A
C789        C790   1.411       .  A
C790        C796   1.411       .  A
C790        C791   1.417       .  A
C791        C793   1.413       .  A
C791        C792   1.411       .  A
C792        C800   1.402       .  A
C793        C802   1.412       .  A
C793        C794   1.405       .  A
C794        C795   1.404       .  A
C794        H805   1.084       .  S
C795        C796   1.406       .  A
C795        H806   1.083       .  S
C796        C797   1.412       .  A
C797        C798   1.413       .  A
C797        H807   1.084       .  S
C798        C799   1.410       .  A
C799        H808   1.084       .  S
C800        C801   1.407       .  A
C800        H809   1.084       .  S
C801        C802   1.409       .  A
C802        H810   1.084       .  S
C811        C812   1.403       .  A
C811        C816   1.405       .  A
C811        H827   1.084       .  S
C812        C813   1.406       .  A
C812        H828   1.083       .  S
C813        C823   1.410       .  A
C813        C814   1.411       .  A
C814        C820   1.412       .  A
C814        C815   1.416       .  A
C815        C817   1.411       .  A
C815        C816   1.414       .  A
C816        C824   1.411       .  A
C817        C826   1.402       .  A
C817        C818   1.403       .  A
C818        C819   1.398       .  A
C818        H829   1.083       .  S
C819        C820   1.403       .  A
C819        H830   1.084       .  S
C820        C821   1.404       .  A
C821        C822   1.409       .  A
C821        H831   1.084       .  S
C822        C823   1.412       .  A
C823        H832   1.084       .  S
C824        C825   1.407       .  A
C824        H833   1.084       .  S
C825        C826   1.405       .  A
C826        H834   1.085       .  S
C835        C836   1.398       .  A
C835        C840   1.403       .  A
C835        H851   1.084       .  S
C836        C837   1.403       .  A
C836        H852   1.083       .  S
C837        C847   1.403       .  A
C837        C838   1.412       .  A
C838        C844   1.411       .  A
C838        C839   1.415       .  A
C839        C841   1.414       .  A
C839        C840   1.410       .  A
C840        C848   1.401       .  A
C841        C850   1.411       .  A
C841        C842   1.405       .  A
C842        C843   1.403       .  A
C842        H853   1.084       .  S
C843        C844   1.406       .  A
C843        H854   1.084       .  S
C844        C845   1.409       .  A
C845        C846   1.412       .  A
C845        H855   1.084       .  S
C846        C847   1.408       .  A
C847        H856   1.084       .  S
C848        C849   1.407       .  A
C848        H857   1.085       .  S
C849        C850   1.408       .  A
C850        H858   1.084       .  S
C859        C860   1.399       .  A
C859        C864   1.404       .  A
C859        H875   1.084       .  S
C860        C861   1.403       .  A
C860        H876   1.083       .  S
C861        C871   1.403       .  A
C861        C862   1.411       .  A
C862        C868   1.413       .  A
C862        C863   1.415       .  A
C863        C865   1.411       .  A
C863        C864   1.411       .  A
C864        C872   1.405       .  A
C865        C874   1.408       .  A
C865        C866   1.405       .  A
C866        C867   1.402       .  A
C866        H877   1.083       .  S
C867        C868   1.404       .  A
C867        H878   1.083       .  S
C868        C869   1.408       .  A
C869        C870   1.405       .  A
C869        H879   1.083       .  S
C870        C871   1.405       .  A
C871        H880   1.084       .  S
C872        C873   1.409       .  A
C872        H881   1.084       .  S
C873        C874   1.411       .  A
C874        H882   1.084       .  S
C883        C884   1.396       .  A
C883        C888   1.402       .  A
C883        H899   1.084       .  S
C884        C885   1.403       .  A
C884        H900   1.083       .  S
C885        C895   1.398       .  A
C885        C886   1.410       .  A
C886        C892   1.412       .  A
C886        C887   1.412       .  A
C887        C889   1.411       .  A
C887        C888   1.411       .  A
C888        C896   1.400       .  A
C889        C898   1.406       .  A
C889        C890   1.405       .  A
C890        C891   1.402       .  A
C890        H901   1.083       .  S
C891        C892   1.404       .  A
C891        H902   1.084       .  S
C892        C893   1.407       .  A
C893        C894   1.409       .  A
C893        H903   1.084       .  S
C894        C895   1.407       .  A
C895        H904   1.084       .  S
C896        C897   1.407       .  A
C896        H905   1.084       .  S
C897        C898   1.411       .  A
C898        H906   1.084       .  S
C907        C908   1.403       .  A
C907        C912   1.404       .  A
C907        H923   1.084       .  S
C908        C909   1.406       .  A
C908        H924   1.083       .  S
C909        C919   1.409       .  A
C909        C910   1.411       .  A
C910        C916   1.412       .  A
C910        C911   1.415       .  A
C911        C913   1.410   1_556  A
C911        C912   1.414       .  A
C912        C920   1.411       .  A
C913        C922   1.400       .  A
C913        C914   1.403       .  A
C914        C915   1.398       .  A
C914        H925   1.084       .  S
C915        C916   1.403   1_554  A
C915        H926   1.084       .  S
C916        C917   1.404       .  A
C917        C918   1.409       .  A
C917        H927   1.084   1_556  S
C918        C919   1.412       .  A
C919        H928   1.084       .  S
C920        C921   1.407   1_556  A
C920        H929   1.084       .  S
C921        C922   1.407       .  A
C922        H930   1.085       .  S
C931        C932   1.397       .  A
C931        C936   1.403   1_554  A
C931        H947   1.084       .  S
C932        C933   1.402   1_554  A
C932        H948   1.083       .  S
C933        C943   1.399   1_556  A
C933        C934   1.411       .  A
C934        C940   1.413       .  A
C934        C935   1.415       .  A
C935        C937   1.412       .  A
C935        C936   1.411       .  A
C936        C944   1.401       .  A
C937        C946   1.412       .  A
C937        C938   1.406       .  A
C938        C939   1.404       .  A
C938        H949   1.083       .  S
C939        C940   1.405       .  A
C939        H950   1.084       .  S
C940        C941   1.411       .  A
C941        C942   1.408       .  A
C941        H951   1.085       .  S
C942        C943   1.405   1_556  A
C943        H952   1.085       .  S
C944        C945   1.408       .  A
C944        H953   1.084       .  S
C945        C946   1.412       .  A
C946        H954   1.084       .  S
C955        C956   1.400       .  A
C955        C960   1.404       .  A
C955        H971   1.083       .  S
C956        C957   1.404       .  A
C956        H972   1.084       .  S
C957        C967   1.406       .  A
C957       C1316   1.411       .  A
C958       C1315   1.411       .  A
C958        C959   1.415       .  A
C959       C1318   1.411       .  A
C960       C1317   1.411       .  A
C960        C968   1.405       .  A
C961        C970   1.407       .  A
C961        C962   1.404       .  A
C962        C963   1.401       .  A
C962        H973   1.084       .  S
C963        C964   1.404       .  A
C963        H974   1.083       .  S
C964        C965   1.406       .  A
C965        H975   1.084       .  S
C966        C967   1.408       .  A
C967        H976   1.084       .  S
C968        C969   1.410       .  A
C968        H977   1.084       .  S
C970        H978   1.084       .  S
C979        C980   1.400       .  A
C979        C984   1.404       .  A
C979        H995   1.083       .  S
C980        C981   1.404       .  A
C980        H996   1.084       .  S
C981       C1340   1.410       .  A
C982       C1339   1.410   1_545  A
C982       C1341   1.415       .  A
C983       C1340   1.415       .  A
C983        C984   1.412       .  A
C984        C992   1.406       .  A
C985        C994   1.405       .  A
C985        C986   1.404       .  A
C986        C987   1.400       .  A
C986        H997   1.084       .  S
C987        C988   1.404       .  A
C987        H998   1.083       .  S
C989        H999   1.084       .  S
C990       C1349   1.410   1_545  A
C991       C1348   1.410       .  A
C991       H1000   1.084       .  S
C992       C1351   1.410       .  A
C992       H1001   1.084       .  S
C993       C1350   1.410       .  A
C994       H1002   1.084       .  S
C1003      C1004   1.399       .  A
C1003      C1008   1.404       .  A
C1003      H1019   1.083       .  S
C1004      C1005   1.403       .  A
C1004      H1020   1.084       .  S
C1005      C1015   1.403       .  A
C1005      C1006   1.412       .  A
C1006      C1012   1.411       .  A
C1006      C1007   1.412       .  A
C1007      C1009   1.411       .  A
C1007      C1008   1.410       .  A
C1008      C1016   1.402       .  A
C1009      C1018   1.404       .  A
C1009      C1010   1.403       .  A
C1010      C1011   1.399       .  A
C1010      H1021   1.084       .  S
C1011      C1012   1.403       .  A
C1011      H1022   1.083       .  S
C1012      C1013   1.402       .  A
C1013      C1014   1.408       .  A
C1013      H1023   1.084       .  S
C1014      C1015   1.407       .  A
C1015      H1024   1.085       .  S
C1016      C1017   1.409       .  A
C1016      H1025   1.083       .  S
C1017      C1018   1.408       .  A
C1018      H1026   1.084       .  S
C1027      C1028   1.403       .  A
C1027      C1032   1.406       .  A
C1027      H1043   1.084       .  S
C1028      C1029   1.405       .  A
C1028      H1044   1.083       .  S
C1029      C1039   1.411       .  A
C1029      C1030   1.414       .  A
C1030      C1036   1.411       .  A
C1030      C1031   1.414       .  A
C1031      C1033   1.411       .  A
C1031      C1032   1.411       .  A
C1032      C1040   1.410       .  A
C1033      C1042   1.401       .  A
C1033      C1034   1.403       .  A
C1034      C1035   1.397       .  A
C1034      H1045   1.083       .  S
C1035      C1036   1.402       .  A
C1035      H1046   1.084       .  S
C1036      C1037   1.399       .  A
C1037      C1038   1.405       .  A
C1037      H1047   1.085       .  S
C1038      C1039   1.408       .  A
C1039      H1048   1.084       .  S
C1040      C1041   1.411       .  A
C1040      H1049   1.084       .  S
C1041      C1042   1.408       .  A
C1042      H1050   1.084       .  S
C1051      C1052   1.404       .  A
C1051      C1056   1.407       .  A
C1051      H1067   1.083       .  S
C1052      C1053   1.405       .  A
C1052      H1068   1.084       .  S
C1053      C1063   1.412       .  A
C1053      C1054   1.414       .  A
C1054      C1060   1.410       .  A
C1054      C1055   1.416       .  A
C1055      C1057   1.412       .  A
C1055      C1056   1.411       .  A
C1056      C1064   1.412       .  A
C1057      C1066   1.402       .  A
C1057      C1058   1.403       .  A
C1058      C1059   1.397       .  A
C1058      H1069   1.084       .  S
C1059      C1060   1.403       .  A
C1059      H1070   1.084       .  S
C1060      C1061   1.399       .  A
C1061      C1062   1.406       .  A
C1061      H1071   1.085       .  S
C1062      C1063   1.408       .  A
C1063      H1072   1.085       .  S
C1064      C1065   1.413       .  A
C1064      H1073   1.084       .  S
C1065      C1066   1.408       .  A
C1066      H1074   1.084       .  S
C1075      N1076   1.366       .  A
C1075      N1080   1.360       .  A
C1075      C1396   1.478       .  S
N1076      C1077   1.366       .  A
C1077      N1078   1.358       .  A
C1077      C1420   1.480       .  S
N1078      C1079   1.353       .  A
C1079      N1080   1.355       .  A
C1079      C1375   1.486       .  S
Zn1081     O1086   2.037       .  S
Zn1081     O1090   2.034       .  S
Zn1082     O1087   2.019       .  S
Zn1082     O1093   2.036   1_556  S
Zn1082     O1085   1.969       .  S
Zn1083     O1088   2.035       .  S
Zn1083     O1091   2.049       .  S
Zn1083     O1085   1.971       .  S
Zn1084     O1092   2.040       .  S
Zn1084     O1095   2.029   1_556  S
O1086      C1098   1.278       .  A
O1087      C1099   1.275       .  A
O1088      C1100   1.277       .  A
O1089      C1098   1.276       .  A
O1091      C1099   1.276       .  A
O1092      C1101   1.275       .  A
O1093      C1102   1.277       .  A
O1094      C1101   1.275       .  A
O1096      C1103   1.276       .  A
O1097      C1103   1.276       .  A
C1098      C1423   1.494       .  S
C1099      C1303   1.491       .  S
C1100      C1327   1.491       .  S
C1101      C1399   1.489       .  S
C1102      C1351   1.490       .  S
C1103      C1276   1.492       .  S
C1104      N1105   1.360       .  A
C1104      N1109   1.367       .  A
C1104      C1300   1.480   1_554  S
N1105      C1106   1.354       .  A
C1106      N1107   1.354       .  A
C1106      C1255   1.486       .  S
N1107      C1108   1.359       .  A
C1108      N1109   1.366       .  A
C1108      C1279   1.482       .  S
C1110      N1111   1.359       .  A
C1110      N1115   1.365       .  A
C1110      C1207   1.483       .  S
C1112      N1113   1.357   1_455  A
C1112      C1348   1.489       .  S
N1113      C1114   1.361       .  A
C1114      C1228   1.477       .  S
Zn1116     O1121   2.035       .  S
Zn1116     O1125   2.028       .  S
Zn1116     O1132   2.004       .  S
Zn1116     O1120   1.960       .  S
Zn1117     O1122   2.010       .  S
Zn1117     O1124   2.032       .  S
Zn1117     O1128   2.033       .  S
Zn1117     O1120   1.967       .  S
Zn1118     O1123   2.038       .  S
Zn1118     O1126   2.021       .  S
Zn1118     O1129   2.032       .  S
Zn1118     O1120   1.965       .  S
Zn1119     O1127   2.057       .  S
Zn1119     O1130   2.037       .  S
Zn1119     O1131   2.039       .  S
Zn1119     O1120   1.979       .  S
O1121      C1133   1.274       .  A
O1122      C1134   1.274       .  A
O1123      C1135   1.275       .  A
O1124      C1133   1.275       .  A
O1125      C1135   1.275       .  A
O1126      C1134   1.276       .  A
O1127      C1136   1.278       .  A
O1128      C1137   1.275       .  A
O1129      C1136   1.277       .  A
O1130      C1137   1.277       .  A
O1131      C1138   1.277       .  A
O1132      C1138   1.275       .  A
C1133      C1180   1.493       .  S
C1134      C1372   1.481       .  S
C1135      C1204   1.492       .  S
C1136      C1156   1.497       .  S
C1137      C1231   1.492       .  S
C1138      C1252   1.484       .  S
C1139      N1144   1.360       .  A
C1139      C1183   1.480       .  S
C1141      N1142   1.361       .  A
C1141      C1159   1.486       .  S
N1142      C1143   1.357       .  A
C1143      C1324   1.488       .  S
C1145      C1146   1.398       .  A
C1145      C1150   1.403       .  A
C1145      H1161   1.083       .  S
C1146      C1147   1.404       .  A
C1146      H1162   1.084       .  S
C1147      C1157   1.404       .  A
C1147      C1148   1.411       .  A
C1148      C1154   1.411       .  A
C1148      C1149   1.417       .  A
C1149      C1151   1.413       .  A
C1149      C1150   1.411       .  A
C1150      C1158   1.402       .  A
C1151      C1160   1.412       .  A
C1151      C1152   1.405       .  A
C1152      C1153   1.404       .  A
C1152      H1163   1.084       .  S
C1153      C1154   1.406       .  A
C1153      H1164   1.083       .  S
C1154      C1155   1.412       .  A
C1155      C1156   1.413       .  A
C1155      H1165   1.084       .  S
C1156      C1157   1.410       .  A
C1157      H1166   1.084       .  S
C1158      C1159   1.407       .  A
C1158      H1167   1.084       .  S
C1159      C1160   1.409       .  A
C1160      H1168   1.084       .  S
C1169      C1170   1.403       .  A
C1169      C1174   1.405       .  A
C1169      H1185   1.084       .  S
C1170      C1171   1.406       .  A
C1170      H1186   1.083       .  S
C1171      C1181   1.410       .  A
C1171      C1172   1.411       .  A
C1172      C1178   1.412       .  A
C1172      C1173   1.416       .  A
C1173      C1175   1.411       .  A
C1173      C1174   1.414       .  A
C1174      C1182   1.411       .  A
C1175      C1184   1.402       .  A
C1175      C1176   1.403       .  A
C1176      C1177   1.398       .  A
C1176      H1187   1.083       .  S
C1177      C1178   1.403       .  A
C1177      H1188   1.084       .  S
C1178      C1179   1.404       .  A
C1179      C1180   1.409       .  A
C1179      H1189   1.084       .  S
C1180      C1181   1.412       .  A
C1181      H1190   1.084       .  S
C1182      C1183   1.407       .  A
C1182      H1191   1.084       .  S
C1183      C1184   1.405       .  A
C1184      H1192   1.085       .  S
C1193      C1194   1.398       .  A
C1193      C1198   1.403       .  A
C1193      H1209   1.084       .  S
C1194      C1195   1.403       .  A
C1194      H1210   1.083       .  S
C1195      C1205   1.403       .  A
C1195      C1196   1.412       .  A
C1196      C1202   1.411       .  A
C1196      C1197   1.415       .  A
C1197      C1199   1.414       .  A
C1197      C1198   1.410       .  A
C1198      C1206   1.401       .  A
C1199      C1208   1.411       .  A
C1199      C1200   1.405       .  A
C1200      C1201   1.403       .  A
C1200      H1211   1.084       .  S
C1201      C1202   1.406       .  A
C1201      H1212   1.084       .  S
C1202      C1203   1.409       .  A
C1203      C1204   1.412       .  A
C1203      H1213   1.084       .  S
C1204      C1205   1.408       .  A
C1205      H1214   1.084       .  S
C1206      C1207   1.407       .  A
C1206      H1215   1.085       .  S
C1207      C1208   1.408       .  A
C1208      H1216   1.084       .  S
C1217      C1218   1.399       .  A
C1217      C1222   1.404       .  A
C1217      H1233   1.084       .  S
C1218      C1219   1.403       .  A
C1218      H1234   1.083       .  S
C1219      C1229   1.403       .  A
C1219      C1220   1.411       .  A
C1220      C1226   1.413       .  A
C1220      C1221   1.415       .  A
C1221      C1223   1.411       .  A
C1221      C1222   1.411       .  A
C1222      C1230   1.405       .  A
C1223      C1232   1.408       .  A
C1223      C1224   1.405       .  A
C1224      C1225   1.402       .  A
C1224      H1235   1.083       .  S
C1225      C1226   1.404       .  A
C1225      H1236   1.083       .  S
C1226      C1227   1.408       .  A
C1227      C1228   1.405       .  A
C1227      H1237   1.083       .  S
C1228      C1229   1.405       .  A
C1229      H1238   1.084       .  S
C1230      C1231   1.409       .  A
C1230      H1239   1.084       .  S
C1231      C1232   1.411       .  A
C1232      H1240   1.084       .  S
C1241      C1242   1.396       .  A
C1241      C1246   1.402       .  A
C1241      H1257   1.084       .  S
C1242      C1243   1.403       .  A
C1242      H1258   1.083       .  S
C1243      C1253   1.398       .  A
C1243      C1244   1.410       .  A
C1244      C1250   1.412       .  A
C1244      C1245   1.412       .  A
C1245      C1247   1.411       .  A
C1245      C1246   1.411       .  A
C1246      C1254   1.400       .  A
C1247      C1256   1.406       .  A
C1247      C1248   1.405       .  A
C1248      C1249   1.402       .  A
C1248      H1259   1.083       .  S
C1249      C1250   1.404       .  A
C1249      H1260   1.084       .  S
C1250      C1251   1.407       .  A
C1251      C1252   1.409       .  A
C1251      H1261   1.084       .  S
C1252      C1253   1.407       .  A
C1253      H1262   1.084       .  S
C1254      C1255   1.407       .  A
C1254      H1263   1.084       .  S
C1255      C1256   1.411       .  A
C1256      H1264   1.084       .  S
C1265      C1266   1.403       .  A
C1265      C1270   1.404       .  A
C1265      H1281   1.084       .  S
C1266      C1267   1.406       .  A
C1266      H1282   1.083       .  S
C1267      C1277   1.409       .  A
C1267      C1268   1.411       .  A
C1268      C1274   1.412       .  A
C1268      C1269   1.415       .  A
C1269      C1271   1.410   1_556  A
C1269      C1270   1.414       .  A
C1270      C1278   1.411       .  A
C1271      C1280   1.400       .  A
C1271      C1272   1.403       .  A
C1272      C1273   1.398       .  A
C1272      H1283   1.084       .  S
C1273      C1274   1.403   1_554  A
C1273      H1284   1.084       .  S
C1274      C1275   1.404       .  A
C1275      C1276   1.409       .  A
C1275      H1285   1.084   1_556  S
C1276      C1277   1.412       .  A
C1277      H1286   1.084       .  S
C1278      C1279   1.407   1_556  A
C1278      H1287   1.084       .  S
C1279      C1280   1.407       .  A
C1280      H1288   1.085       .  S
C1289      C1290   1.397       .  A
C1289      C1294   1.403   1_554  A
C1289      H1305   1.084       .  S
C1290      C1291   1.402   1_554  A
C1290      H1306   1.083       .  S
C1291      C1301   1.399   1_556  A
C1291      C1292   1.411       .  A
C1292      C1298   1.413       .  A
C1292      C1293   1.415       .  A
C1293      C1295   1.412       .  A
C1293      C1294   1.411       .  A
C1294      C1302   1.401       .  A
C1295      C1304   1.412       .  A
C1295      C1296   1.406       .  A
C1296      C1297   1.404       .  A
C1296      H1307   1.083       .  S
C1297      C1298   1.405       .  A
C1297      H1308   1.084       .  S
C1298      C1299   1.411       .  A
C1299      C1300   1.408       .  A
C1299      H1309   1.085       .  S
C1300      C1301   1.405   1_556  A
C1301      H1310   1.085       .  S
C1302      C1303   1.408       .  A
C1302      H1311   1.084       .  S
C1303      C1304   1.412       .  A
C1304      H1312   1.084       .  S
C1313      C1314   1.400       .  A
C1313      C1318   1.404       .  A
C1313      H1329   1.083       .  S
C1314      C1315   1.404       .  A
C1314      H1330   1.084       .  S
C1315      C1325   1.406       .  A
C1316      C1317   1.415       .  A
C1318      C1326   1.405       .  A
C1319      C1328   1.407       .  A
C1319      C1320   1.404       .  A
C1320      C1321   1.401       .  A
C1320      H1331   1.084       .  S
C1321      C1322   1.404       .  A
C1321      H1332   1.083       .  S
C1322      C1323   1.406       .  A
C1323      H1333   1.084       .  S
C1324      C1325   1.408       .  A
C1325      H1334   1.084       .  S
C1326      C1327   1.410       .  A
C1326      H1335   1.084       .  S
C1328      H1336   1.084       .  S
C1337      C1338   1.400       .  A
C1337      C1342   1.404   1_565  A
C1337      H1353   1.083       .  S
C1338      C1339   1.404       .  A
C1338      H1354   1.084       .  S
C1341      C1342   1.412       .  A
C1342      C1350   1.406       .  A
C1343      C1352   1.405       .  A
C1343      C1344   1.404       .  A
C1344      C1345   1.400       .  A
C1344      H1355   1.084       .  S
C1345      C1346   1.404       .  A
C1345      H1356   1.083       .  S
C1347      H1357   1.084       .  S
C1349      H1358   1.084       .  S
C1350      H1359   1.084   1_545  S
C1352      H1360   1.084       .  S
C1361      C1362   1.399       .  A
C1361      C1366   1.404       .  A
C1361      H1377   1.083       .  S
C1362      C1363   1.403       .  A
C1362      H1378   1.084       .  S
C1363      C1373   1.403       .  A
C1363      C1364   1.412       .  A
C1364      C1370   1.411       .  A
C1364      C1365   1.412       .  A
C1365      C1367   1.411       .  A
C1365      C1366   1.410       .  A
C1366      C1374   1.402       .  A
C1367      C1376   1.404       .  A
C1367      C1368   1.403       .  A
C1368      C1369   1.399       .  A
C1368      H1379   1.084       .  S
C1369      C1370   1.403       .  A
C1369      H1380   1.083       .  S
C1370      C1371   1.402       .  A
C1371      C1372   1.408       .  A
C1371      H1381   1.084       .  S
C1372      C1373   1.407       .  A
C1373      H1382   1.085       .  S
C1374      C1375   1.409       .  A
C1374      H1383   1.083       .  S
C1375      C1376   1.408       .  A
C1376      H1384   1.084       .  S
C1385      C1386   1.403       .  A
C1385      C1390   1.406       .  A
C1385      H1401   1.084       .  S
C1386      C1387   1.405       .  A
C1386      H1402   1.083       .  S
C1387      C1397   1.411       .  A
C1387      C1388   1.414       .  A
C1388      C1394   1.411       .  A
C1388      C1389   1.414       .  A
C1389      C1391   1.411       .  A
C1389      C1390   1.411       .  A
C1390      C1398   1.410       .  A
C1391      C1400   1.401       .  A
C1391      C1392   1.403       .  A
C1392      C1393   1.397       .  A
C1392      H1403   1.083       .  S
C1393      C1394   1.402       .  A
C1393      H1404   1.084       .  S
C1394      C1395   1.399       .  A
C1395      C1396   1.405       .  A
C1395      H1405   1.085       .  S
C1396      C1397   1.408       .  A
C1397      H1406   1.084       .  S
C1398      C1399   1.411       .  A
C1398      H1407   1.084       .  S
C1399      C1400   1.408       .  A
C1400      H1408   1.084       .  S
C1409      C1410   1.404       .  A
C1409      C1414   1.407       .  A
C1409      H1425   1.083       .  S
C1410      C1411   1.405       .  A
C1410      H1426   1.084       .  S
C1411      C1421   1.412       .  A
C1411      C1412   1.414       .  A
C1412      C1418   1.410       .  A
C1412      C1413   1.416       .  A
C1413      C1415   1.412       .  A
C1413      C1414   1.411       .  A
C1414      C1422   1.412       .  A
C1415      C1424   1.402       .  A
C1415      C1416   1.403       .  A
C1416      C1417   1.397       .  A
C1416      H1427   1.084       .  S
C1417      C1418   1.403       .  A
C1417      H1428   1.084       .  S
C1418      C1419   1.399       .  A
C1419      C1420   1.406       .  A
C1419      H1429   1.085       .  S
C1420      C1421   1.408       .  A
C1421      H1430   1.085       .  S
C1422      C1423   1.413       .  A
C1422      H1431   1.084       .  S
C1423      C1424   1.408       .  A
C1424      H1432   1.084       .  S
