geometry optimzed in LAMMPS
_audit_creation_date              2020-12-01 
_audit_creation_method            'lammps2cif' 
_symmetry_space_group_name_H-M    'P1' 
_symmetry_Int_Tables_number       1 
_symmetry_cell_setting            triclinic 
loop_ 
_symmetry_equiv_pos_as_xyz 
  x,y,z 
_cell_length_a                    34.90006697 
_cell_length_b                    34.858354206827975 
_cell_length_c                    26.888253840205866 
_cell_angle_alpha                 90.04132015436981 
_cell_angle_beta                  89.57757524263334 
_cell_angle_gamma                 89.97115706587667 
loop_ 
_atom_site_label 
_atom_site_type_symbol 
_atom_site_fract_x 
_atom_site_fract_y 
_atom_site_fract_z 
_atom_site_charge 
N1          N  0.63732555  0.28142710  0.99989821    -0.27800
N2          N  0.60195943  0.29454123  0.00549584    -0.35600
C3          C  0.57788593  0.26495544  0.01157191     0.00600
C4          C  0.59874035  0.23131065  0.01025643     0.06600
C5          C  0.63637340  0.24273714  0.00205336    -0.06500
H6          H  0.54713033  0.26778960  0.01503213     0.07300
H7          H  0.66112098  0.22432145  0.99769002     0.08500
Cu8        Cu  0.58514707  0.35126368  0.00217186     0.44200
Cu9        Cu  0.68482827  0.31719646  0.98892514     0.42000
Cu10       Cu  0.65677367  0.41792806  0.47528223     0.43900
N11         N  0.57335665  0.40892085  0.99422319    -0.35100
N12         N  0.60068835  0.43432359  0.48366928    -0.29400
C13         C  0.58532401  0.46950213  0.47983853    -0.05500
C14         C  0.54597778  0.46584188  0.98833796     0.06700
C15         C  0.53946810  0.42715014  0.99620452     0.00500
H16         H  0.60127700  0.49521586  0.47088421     0.08200
H17         H  0.51214571  0.41328835  0.00262810     0.07200
N18         N  0.71228300  0.39846289  0.97376335    -0.36600
N19         N  0.72330933  0.36218560  0.47710371    -0.28800
C20         C  0.76200280  0.36132384  0.47539776    -0.04000
C21         C  0.77515482  0.39844147  0.46739247     0.04600
C22         C  0.74291654  0.42116793  0.96838042     0.02700
H23         H  0.77943338  0.33597763  0.98142437     0.07800
H24         H  0.74134038  0.45171434  0.46232701     0.06600
N25         N  0.82639424  0.77851087  0.24949133    -0.27800
N26         N  0.86117754  0.79015727  0.26190549    -0.35600
C27         C  0.88554152  0.76043061  0.26058190     0.00600
C28         C  0.86570789  0.72792593  0.24731451     0.06600
C29         C  0.82813198  0.74031832  0.24030987    -0.06500
H30         H  0.91568340  0.76231263  0.26939052     0.07300
H31         H  0.80403767  0.72293016  0.22910343     0.08500
Cu32       Cu  0.87722265  0.84484218  0.28202344     0.44200
Cu33       Cu  0.77862325  0.81618939  0.24615238     0.42000
Cu34       Cu  0.80709821  0.91402489  0.28099881     0.43900
N35         N  0.88937328  0.90085633  0.30036032    -0.35100
N36         N  0.86236324  0.92723014  0.29993050    -0.29400
C37         C  0.87799421  0.96166753  0.30896656    -0.05500
C38         C  0.91694544  0.95664123  0.31574729     0.06700
C39         C  0.92321840  0.91764833  0.30972809     0.00500
H40         H  0.86248700  0.98853542  0.30826930     0.08200
H41         H  0.95052180  0.90297544  0.30903169     0.07200
N42         N  0.75262121  0.89848323  0.26120718    -0.36600
N43         N  0.74062166  0.86373912  0.24911126    -0.28800
C44         C  0.70232376  0.86572344  0.24131055    -0.04000
C45         C  0.69025293  0.90359054  0.24865620     0.04600
C46         C  0.72318464  0.92304679  0.26113955     0.02700
H47         H  0.68450788  0.84132429  0.23249964     0.07800
H48         H  0.72566869  0.95316004  0.27035253     0.06600
N49         N  0.24497471  0.67148519  0.49144924    -0.27800
N50         N  0.25859192  0.63614587  0.49479588    -0.35600
C51         C  0.22965442  0.61098537  0.49295555     0.00600
C52         C  0.19570445  0.63163759  0.98782927     0.06600
C53         C  0.20646495  0.66937631  0.48718699    -0.06500
H54         H  0.23321241  0.58020114  0.49489857     0.07300
H55         H  0.18770502  0.69386265  0.48310573     0.08500
Cu56       Cu  0.31543325  0.62062087  0.49553185     0.44200
Cu57       Cu  0.28049797  0.72025603  0.49071303     0.42000
Cu58       Cu  0.38133056  0.69289851  0.97381471     0.43900
N59         N  0.37247855  0.60901861  0.48323203    -0.35100
N60         N  0.39724929  0.63618840  0.97540946    -0.29400
C61         C  0.43216692  0.62052810  0.96962833    -0.04500
C62         C  0.42852348  0.58120595  0.97442636     0.06700
C63         C  0.39062299  0.57507205  0.48306224     0.00500
H64         H  0.45822850  0.63655724  0.96286719     0.08200
H65         H  0.37705506  0.54779885  0.49078054     0.07200
N66         N  0.36235059  0.74833445  0.48265207    -0.36600
N67         N  0.32667282  0.75952712  0.99036906    -0.28800
C68         C  0.32671562  0.79782632  0.99851827    -0.04000
C69         C  0.36445854  0.81063530  0.99738589     0.04600
C70         C  0.38569802  0.77862707  0.48630119     0.02700
H71         H  0.30100165  0.81441955  0.50661595     0.07800
H72         H  0.41680975  0.77696121  0.98246270     0.06600
O73         O  0.46296011  0.99504153  0.32035517    -0.73400
O74         O  0.46332464  0.99582695  0.17124789    -0.74400
O75         O  0.51234127  0.96546131  0.24492709    -0.63000
O76         O  0.41393773  0.02530411  0.24622191    -0.71400
O77         O  0.44586207  0.08028633  0.24648891    -0.71000
O78         O  0.54488374  0.02014280  0.24668120    -0.62200
O79         O  0.49609837  0.05049761  0.17153528    -0.74700
O80         O  0.49488298  0.05020466  0.32085740    -0.73500
Cu81       Cu  0.46199162  0.99356952  0.24562649     1.04600
Cu82       Cu  0.49662804  0.05223475  0.24629821     1.04300
C83         C  0.47881080  0.02250624  0.34395444     0.92800
C84         C  0.47986498  0.02317730  0.14807743     0.91900
C85         C  0.54419294  0.98341830  0.24642503     0.84100
C86         C  0.41410317  0.06197406  0.24643865     0.90300
O87         O  0.45273016  0.03950414  0.07083463    -0.73400
O88         O  0.45198092  0.03951438  0.42188509    -0.74400
O89         O  0.42108937  0.99059000  0.49695726    -0.63000
O90         O  0.48404997  0.08773013  0.99677239    -0.71400
O91         O  0.53789930  0.05379355  0.99460479    -0.71000
O92         O  0.47509795  0.95704038  0.49743712    -0.62200
O93         O  0.50551994  0.00494940  0.42119302    -0.74700
O94         O  0.50710944  0.00624563  0.07039743    -0.73500
Cu95       Cu  0.45011675  0.04058247  0.49658075     1.04600
Cu96       Cu  0.50861853  0.00419214  0.99574620     1.04300
C97         C  0.48001187  0.02311046  0.09392377     0.92800
C98         C  0.47871231  0.02223293  0.39818901     0.91900
C99         C  0.43847322  0.95831296  0.49767163     0.84100
C100        C  0.51959734  0.08641447  0.49634635     0.90300
N101        N  0.12933211  0.25163171  0.26785205    -0.27800
N102        N  0.09318729  0.24126411  0.27430461    -0.35600
C103        C  0.07022180  0.27089034  0.26325956     0.00600
C104        C  0.09275153  0.30157542  0.24897290     0.06600
C105        C  0.13018515  0.28858148  0.25297002    -0.06500
H106        H  0.03930233  0.27033893  0.26641695     0.07300
H107        H  0.15604159  0.30472475  0.24546561     0.08500
Cu108      Cu  0.07538198  0.18758285  0.29716065     0.44200
Cu109      Cu  0.17524758  0.21399776  0.27793652     0.42000
Cu110      Cu  0.14722758  0.11513810  0.30546716     0.43900
N111        N  0.06277673  0.13060553  0.30997979    -0.35100
N112        N  0.08924434  0.10360281  0.31223593    -0.29400
C113        C  0.07199066  0.06921552  0.31564442    -0.05500
C114        C  0.03274295  0.07490291  0.31483583     0.06700
C115        C  0.02795974  0.11426393  0.31206333     0.00500
H116        H  0.08689580  0.04200775  0.31638059     0.08200
H117        H  0.00124401  0.12988139  0.31014970     0.07200
N118        N  0.20321434  0.13264971  0.29307232    -0.36600
N119        N  0.21383140  0.16837752  0.28375550    -0.28800
C120        C  0.25193124  0.16890655  0.27500501    -0.04000
C121        C  0.26581777  0.13173969  0.27896596     0.04600
C122        C  0.23402929  0.10962289  0.29016725     0.02700
H123        H  0.26792811  0.19411325  0.26409822     0.07800
H124        H  0.23318389  0.07879147  0.29456152     0.06600
O125        O  0.92629554  0.54934534  0.23648835    -0.73400
O126        O  0.98593777  0.45022242  0.23444122    -0.74400
O127        O  0.95677977  0.49913487  0.31029115    -0.63000
O128        O  0.95582476  0.49985413  0.16100999    -0.71400
O129        O  0.01098412  0.53172931  0.16042429    -0.71000
O130        O  0.01130945  0.53205226  0.30948644    -0.62200
O131        O  0.04066888  0.48255333  0.23474233    -0.74700
O132        O  0.98102132  0.58154806  0.23502120    -0.73500
Cu133      Cu  0.95427557  0.49850983  0.23561968     1.04600
Cu134      Cu  0.01285482  0.53316333  0.23490906     1.04300
C135        C  0.94435285  0.58125881  0.23520340     0.92800
C136        C  0.02258239  0.45068691  0.23472747     0.91900
C137        C  0.98433576  0.51527872  0.33322423     0.84100
C138        C  0.98351505  0.51557381  0.13740759     0.90300
O139        O  0.00119835  0.48838801  0.05998883    -0.73400
O140        O  0.00097470  0.48753095  0.41055341    -0.74400
O141        O  0.04973197  0.51798004  0.48503619    -0.63000
O142        O  0.95248279  0.45689400  0.48584599    -0.71400
O143        O  0.91917408  0.51119546  0.48368083    -0.71000
O144        O  0.01673086  0.57238462  0.48662789    -0.62200
O145        O  0.96867102  0.54251455  0.41100436    -0.74700
O146        O  0.96662609  0.54198026  0.05992570    -0.73500
Cu147      Cu  0.00222403  0.48568272  0.48545954     1.04600
Cu148      Cu  0.96655815  0.54430747  0.98553741     1.04300
C149        C  0.98375201  0.51523650  0.08326451     0.92800
C150        C  0.98473136  0.51505059  0.38743852     0.91900
C151        C  0.04878599  0.55462727  0.48616611     0.84100
C152        C  0.92047281  0.47453384  0.48399582     0.90300
C153        C  0.04380369  0.41385610  0.23493977    -0.06600
C154        C  0.02957206  0.38337239  0.20636663    -0.17700
C155        C  0.04698793  0.34722091  0.20699216     0.10600
C156        C  0.07894175  0.34076369  0.23788063    -0.06500
C157        C  0.09465240  0.37172300  0.26408302    -0.17700
C158        C  0.07722908  0.40796549  0.26349395     0.10600
S159        S  0.02743185  0.31073219  0.16690826    -0.32700
S160        S  0.09701581  0.44423617  0.30360076    -0.32700
H161        H  0.06127328  0.45708105  0.32158076     0.28600
H162        H  0.06216447  0.29091789  0.15973973     0.28600
H163        H  0.00463993  0.38776121  0.18322484     0.19200
H164        H  0.11906235  0.36700487  0.28802622     0.19200
C165        C  0.37710436  0.08299472  0.24848157    -0.06600
C166        C  0.37403841  0.11609733  0.27820007    -0.17700
C167        C  0.33826007  0.13341422  0.28773310     0.10600
C168        C  0.30480327  0.11716176  0.26731687    -0.06500
C169        C  0.30818443  0.08516449  0.23591622    -0.17700
C170        C  0.34381317  0.06859011  0.22536153     0.10600
S171        S  0.33534736  0.17404847  0.32931990    -0.32700
S172        S  0.34492713  0.02987288  0.18083222    -0.32700
H173        H  0.38084881  0.03976493  0.16044093     0.28600
H174        H  0.37502880  0.17921149  0.33519747     0.28600
H175        H  0.39944968  0.12724435  0.29594993     0.19200
H176        H  0.28279250  0.07320109  0.21888624     0.19200
C177        C  0.41656916  0.92189530  0.50001958    -0.06600
C178        C  0.43211409  0.89194194  0.02842994    -0.17700
C179        C  0.41373478  0.85643629  0.03158337     0.10600
C180        C  0.37987428  0.84986642  0.00423246    -0.06500
C181        C  0.36312956  0.88029883  0.47783934    -0.17700
C182        C  0.38155451  0.91603905  0.47480961     0.10600
S183        S  0.43466351  0.82108709  0.07221018    -0.32700
S184        S  0.36063597  0.95164048  0.43475019    -0.32700
H185        H  0.39574946  0.96332261  0.41362098     0.28600
H186        H  0.39973608  0.80345099  0.08512021     0.28600
H187        H  0.45828809  0.89631009  0.04913743     0.19200
H188        H  0.33736588  0.87549044  0.45647343     0.19200
C189        C  0.15718031  0.61381976  0.48215500    -0.06600
C190        C  0.12642496  0.62998190  0.01024217    -0.17700
C191        C  0.09082039  0.61133258  0.01256632     0.10600
C192        C  0.08536053  0.57613738  0.48564851    -0.06500
C193        C  0.11552111  0.56158898  0.45650303    -0.17700
C194        C  0.15088580  0.58021219  0.45374811     0.10600
S195        S  0.05486582  0.63134653  0.05348447    -0.32700
S196        S  0.18597292  0.56033355  0.41136501    -0.32700
H197        H  0.20188220  0.59591916  0.39776744     0.28600
H198        H  0.04242495  0.59573327  0.07219530     0.28600
H199        H  0.13086525  0.65556973  0.03236550     0.19200
H200        H  0.11125212  0.53579472  0.43468174     0.19200
C201        C  0.94612603  0.98719979  0.31821186    -0.06600
C202        C  0.94230945  0.01864496  0.28611603    -0.17700
C203        C  0.97044076  0.04701518  0.28315444     0.10600
C204        C  0.00277338  0.04494750  0.31444750    -0.06500
C205        C  0.00657672  0.01351189  0.34666673    -0.17700
C206        C  0.97856552  0.98484202  0.34917776     0.10600
S207        S  0.96460125  0.08305467  0.23574326    -0.32700
S208        S  0.98522300  0.94705091  0.39404962    -0.32700
H209        H  0.94605383  0.94244510  0.40517315     0.28600
H210        H  0.00362037  0.08413244  0.22229811     0.28600
H211        H  0.91803238  0.02023714  0.26130002     0.19200
H212        H  0.03114395  0.01172612  0.37097026     0.19200
C213        C  0.65122145  0.92115692  0.24841754    -0.06600
C214        C  0.64353466  0.95025838  0.28347685    -0.17700
C215        C  0.60887734  0.97035070  0.28406146     0.10600
C216        C  0.58048030  0.96149356  0.24884082    -0.06500
C217        C  0.58724571  0.93154603  0.21483020    -0.17700
C218        C  0.62244450  0.91185197  0.21357070     0.10600
S219        S  0.60235354  0.00631053  0.33170209    -0.32700
S220        S  0.62962215  0.87747210  0.16438310    -0.32700
H221        H  0.66749856  0.88883959  0.15393711     0.28600
H222        H  0.56324216  0.99868280  0.33973681     0.28600
H223        H  0.66471952  0.95743903  0.31120070     0.19200
H224        H  0.56561706  0.92463949  0.18753248     0.19200
C225        C  0.88301920  0.68917687  0.24163145    -0.06600
C226        C  0.91710267  0.68596592  0.21383577    -0.17700
C227        C  0.93666620  0.65102476  0.20937015     0.10600
C228        C  0.92270169  0.61811895  0.23444572    -0.06500
C229        C  0.88801051  0.62106669  0.26125989    -0.17700
C230        C  0.86841509  0.65618694  0.26568240     0.10600
S231        S  0.97852782  0.65026507  0.16962306    -0.32700
S232        S  0.82675076  0.65761804  0.30561920    -0.32700
H233        H  0.83480051  0.69381968  0.32616652     0.28600
H234        H  0.97085036  0.61387323  0.14928880     0.28600
H235        H  0.92850254  0.71099515  0.19496280     0.19200
H236        H  0.87698587  0.59624887  0.28092948     0.19200
C237        C  0.51683216  0.49626386  0.98465288    -0.06600
C238        C  0.48478762  0.48960505  0.45459648    -0.17700
C239        C  0.45656759  0.51752453  0.44828056     0.10600
C240        C  0.45955115  0.55256908  0.97427224    -0.06500
C241        C  0.49240823  0.56009029  0.00236878    -0.17700
C242        C  0.52087660  0.53227477  0.00822623     0.10600
S243        S  0.41784767  0.50656746  0.40656523    -0.32700
S244        S  0.56018329  0.54377201  0.04874841    -0.32700
H245        H  0.56341030  0.50675255  0.06906634     0.28600
H246        H  0.41330597  0.54433886  0.38916877     0.28600
H247        H  0.48187143  0.46232431  0.43562913     0.19200
H248        H  0.49512791  0.58722046  0.02173748     0.19200
C249        C  0.88461287  0.45263046  0.47958588    -0.06600
C250        C  0.86025831  0.46204837  0.44030044    -0.17700
C251        C  0.82599527  0.44234472  0.43293045     0.10600
C252        C  0.81478629  0.41329450  0.46669539    -0.06500
C253        C  0.84033009  0.40307175  0.00662130    -0.17700
C254        C  0.87510941  0.42258126  0.01302085     0.10600
S255        S  0.79837003  0.45509575  0.37893691    -0.32700
S256        S  0.90430721  0.40930724  0.06534770    -0.32700
H257        H  0.91817831  0.44643036  0.07497670     0.28600
H258        H  0.78240493  0.41843858  0.37208025     0.28600
H259        H  0.86836696  0.48457529  0.41449502     0.19200
H260        H  0.83196879  0.38124257  0.03325104     0.19200
C261        C  0.58141015  0.19248839  0.51148050    -0.06600
C262        C  0.59412856  0.16501493  0.47684821    -0.17700
C263        C  0.57464207  0.13012693  0.47078439     0.10600
C264        C  0.54174015  0.12237789  0.50011249    -0.06500
C265        C  0.53161387  0.14843789  0.03668415    -0.17700
C266        C  0.55158744  0.18267957  0.04370356     0.10600
S267        S  0.59179863  0.09790764  0.42308006    -0.32700
S268        S  0.53725899  0.21217301  0.09577893    -0.32700
H269        H  0.57413469  0.22674745  0.10491618     0.28600
H270        H  0.55530770  0.08537831  0.40826078     0.28600
H271        H  0.61814746  0.17155318  0.45254070     0.19200
H272        H  0.50757920  0.14186977  0.06100386     0.19200
N273        N  0.63679695  0.28151651  0.49936673    -0.27800
N274        N  0.60146508  0.29482756  0.50449845    -0.35600
C275        C  0.57719238  0.26541660  0.51062155     0.00600
C276        C  0.59785737  0.23165758  0.50989171     0.06600
C277        C  0.63561103  0.24284142  0.50193921    -0.06500
H278        H  0.54643612  0.26845058  0.51370475     0.07300
H279        H  0.66026982  0.22426521  0.49795655     0.08500
Cu280      Cu  0.58490248  0.35155798  0.50072619     0.44200
Cu281      Cu  0.68452650  0.31704475  0.48813971     0.42000
Cu282      Cu  0.65688452  0.41809077  0.97710052     0.43900
N283        N  0.57334829  0.40924384  0.49312189    -0.35100
N284        N  0.60060374  0.43413130  0.98486174    -0.29400
C285        C  0.58506197  0.46922633  0.98085963    -0.05500
C286        C  0.54625312  0.46629717  0.48751744     0.06700
C287        C  0.53956382  0.42763314  0.49533986     0.00500
H288        H  0.60092574  0.49502987  0.97206940     0.08200
H289        H  0.51218425  0.41388719  0.50176577     0.07200
N290        N  0.71206119  0.39815183  0.47145928    -0.36600
N291        N  0.72353937  0.36245236  0.97891625    -0.28800
C292        C  0.76222735  0.36157439  0.97726807    -0.04000
C293        C  0.77537540  0.39873884  0.96981567     0.04600
C294        C  0.74267601  0.42082318  0.46568904     0.02700
H295        H  0.77922399  0.33579834  0.48011039     0.07800
H296        H  0.74160673  0.45207034  0.96516164     0.06600
N297        N  0.82596330  0.77865625  0.74867656    -0.27800
N298        N  0.86084729  0.79027474  0.76063835    -0.35600
C299        C  0.88505309  0.76042480  0.75963722     0.00600
C300        C  0.86499747  0.72789904  0.74701417     0.06600
C301        C  0.82746217  0.74038453  0.74008188    -0.06500
H302        H  0.91527319  0.76227503  0.76798938     0.07300
H303        H  0.80326643  0.72304212  0.72913009     0.08500
Cu304      Cu  0.87732201  0.84516833  0.77913368     0.44200
Cu305      Cu  0.77846534  0.81647481  0.74467288     0.42000
Cu306      Cu  0.80781639  0.91498591  0.77413383     0.43900
N307        N  0.88970747  0.90143975  0.79576785    -0.35100
N308        N  0.86292127  0.92799291  0.79386732    -0.29400
C309        C  0.87861017  0.96243032  0.80264577    -0.05500
C310        C  0.91736739  0.95723277  0.81074977     0.06700
C311        C  0.92349363  0.91812946  0.80578588     0.00500
H312        H  0.86328366  0.98936590  0.80107497     0.08200
H313        H  0.95066687  0.90325202  0.80646316     0.07200
N314        N  0.75312661  0.89927081  0.75573123    -0.36600
N315        N  0.74080950  0.86420305  0.74597729    -0.28800
C316        C  0.70238217  0.86600065  0.73941470    -0.04000
C317        C  0.69053840  0.90407998  0.74507358     0.04600
C318        C  0.72374084  0.92388382  0.75528106     0.02700
H319        H  0.68433301  0.84134231  0.73280238     0.07800
H320        H  0.72641287  0.95423436  0.76303199     0.06600
N321        N  0.24488638  0.67209540  0.99200260    -0.27800
N322        N  0.25839440  0.63674477  0.99587428    -0.35600
C323        C  0.22939663  0.61165916  0.99421619     0.00600
C324        C  0.19586763  0.63091911  0.48706968     0.06600
C325        C  0.20639028  0.67006238  0.98751966    -0.06500
H326        H  0.23286632  0.58088103  0.99648525     0.07300
H327        H  0.18771761  0.69456065  0.98293120     0.08500
Cu328      Cu  0.31514432  0.62089640  0.99668794     0.44200
Cu329      Cu  0.28049789  0.72075890  0.99085168     0.42000
Cu330      Cu  0.38134079  0.69310695  0.47234105     0.43900
N331        N  0.37211198  0.60883661  0.98447952    -0.35100
N332        N  0.39745628  0.63647790  0.47393715    -0.29400
C333        C  0.43243989  0.62098487  0.46805944    -0.04500
C334        C  0.42899229  0.58166568  0.47303913     0.06700
C335        C  0.39008316  0.57478542  0.98423311     0.00500
H336        H  0.45840416  0.63712491  0.46111967     0.08200
H337        H  0.37635757  0.54756384  0.99178598     0.07200
N338        N  0.36253312  0.74829751  0.98333667    -0.36600
N339        N  0.32647023  0.75931477  0.49018076    -0.28800
C340        C  0.32636161  0.79755891  0.49877806    -0.04000
C341        C  0.36403373  0.81057223  0.49743234     0.04600
C342        C  0.38601130  0.77849741  0.98682405     0.02700
H343        H  0.30139896  0.81487061  0.00590936     0.07800
H344        H  0.41648444  0.77728726  0.48168196     0.06600
O345        O  0.46352791  0.99475379  0.82045963    -0.73400
O346        O  0.46303835  0.99571088  0.67139073    -0.74400
O347        O  0.51248200  0.96536571  0.74459572    -0.63000
O348        O  0.41399711  0.02495153  0.74684043    -0.71400
O349        O  0.44580072  0.08001607  0.74699016    -0.71000
O350        O  0.54490085  0.02012274  0.74600911    -0.62200
O351        O  0.49563390  0.05049312  0.67151610    -0.74700
O352        O  0.49536280  0.04997572  0.82072968    -0.73500
Cu353      Cu  0.46211330  0.99334942  0.74577254     1.04600
Cu354      Cu  0.49661616  0.05210454  0.74621893     1.04300
C355        C  0.47948504  0.02222361  0.84392545     0.92800
C356        C  0.47935843  0.02315965  0.64814890     0.91900
C357        C  0.54429550  0.98339869  0.74579440     0.84100
C358        C  0.41409257  0.06161851  0.74709259     0.90300
O359        O  0.45198694  0.03950915  0.57103134    -0.73400
O360        O  0.45289324  0.03943569  0.92180275    -0.74400
O361        O  0.42177272  0.99062752  0.99669803    -0.63000
O362        O  0.48298137  0.08791949  0.49690869    -0.71400
O363        O  0.53693371  0.05415854  0.49470923    -0.71000
O364        O  0.47571157  0.95696594  0.99734268    -0.62200
O365        O  0.50630747  0.00466690  0.92111402    -0.74700
O366        O  0.50643926  0.00636679  0.57039838    -0.73500
Cu367      Cu  0.45097834  0.04053351  0.99640897     1.04600
Cu368      Cu  0.50785885  0.00441105  0.49580651     1.04300
C369        C  0.47934113  0.02313776  0.59401488     0.92800
C370        C  0.47953073  0.02201683  0.89812428     0.91900
C371        C  0.43909357  0.95831468  0.99743083     0.84100
C372        C  0.52066339  0.08609656  0.99624383     0.90300
N373        N  0.12996384  0.25256137  0.76917469    -0.27800
N374        N  0.09374910  0.24215213  0.77480196    -0.35600
C375        C  0.07090883  0.27193009  0.76402856     0.00600
C376        C  0.09358993  0.30277516  0.75085636     0.06600
C377        C  0.13097779  0.28972152  0.75517378    -0.06500
H378        H  0.03995746  0.27133798  0.76649304     0.07300
H379        H  0.15689933  0.30592124  0.74830921     0.08500
Cu380      Cu  0.07561002  0.18826999  0.79627980     0.44200
Cu381      Cu  0.17573274  0.21459914  0.77872260     0.42000
Cu382      Cu  0.14725736  0.11579095  0.80548263     0.43900
N383        N  0.06285192  0.13132942  0.80896256    -0.35100
N384        N  0.08931283  0.10436319  0.81185856    -0.29400
C385        C  0.07209442  0.06996397  0.81503570    -0.05500
C386        C  0.03288530  0.07559911  0.81335669     0.06700
C387        C  0.02804415  0.11493715  0.81032904     0.00500
H388        H  0.08702854  0.04277350  0.81599356     0.08200
H389        H  0.00132554  0.13047738  0.80762251     0.07200
N390        N  0.20320719  0.13290781  0.79249757    -0.36600
N391        N  0.21404288  0.16861839  0.78351203    -0.28800
C392        C  0.25212988  0.16891093  0.77463283    -0.04000
C393        C  0.26573523  0.13160747  0.77816000     0.04600
C394        C  0.23382541  0.10965282  0.78919729     0.02700
H395        H  0.26834214  0.19408971  0.76418761     0.07800
H396        H  0.23279071  0.07882264  0.79349031     0.06600
O397        O  0.92578394  0.54938241  0.73628140    -0.73400
O398        O  0.98607576  0.45067285  0.73507559    -0.74400
O399        O  0.95657097  0.49969845  0.81045101    -0.63000
O400        O  0.95564186  0.49972307  0.66118634    -0.71400
O401        O  0.01063360  0.53188204  0.66040769    -0.71000
O402        O  0.01084346  0.53304686  0.80948713    -0.62200
O403        O  0.04061935  0.48336109  0.73542341    -0.74700
O404        O  0.98032648  0.58189485  0.73455163    -0.73500
Cu405      Cu  0.95408836  0.49873231  0.73581105     1.04600
Cu406      Cu  0.01245606  0.53375779  0.73493078     1.04300
C407        C  0.94366522  0.58138792  0.73476378     0.92800
C408        C  0.02270989  0.45139744  0.73562644     0.91900
C409        C  0.98401261  0.51610688  0.83329376     0.84100
C410        C  0.98325427  0.51548325  0.63747833     0.90300
O411        O  0.00083301  0.48794651  0.56018827    -0.73400
O412        O  0.00088823  0.48828933  0.91043246    -0.74400
O413        O  0.04976458  0.51869134  0.98474013    -0.63000
O414        O  0.95277586  0.45733231  0.98588179    -0.71400
O415        O  0.91926804  0.51152354  0.98396783    -0.71000
O416        O  0.01661963  0.57300213  0.98670027    -0.62200
O417        O  0.96846303  0.54320466  0.91118465    -0.74700
O418        O  0.96649411  0.54168161  0.55979628    -0.73500
Cu419      Cu  0.00238452  0.48627713  0.98528722     1.04600
Cu420      Cu  0.96658599  0.54382095  0.48536757     1.04300
C421        C  0.98348896  0.51494174  0.58331135     0.92800
C422        C  0.98453095  0.51582078  0.88748034     0.91900
C423        C  0.04871976  0.55532768  0.98605170     0.84100
C424        C  0.92070481  0.47486729  0.98429916     0.90300
C425        C  0.04414888  0.41475283  0.73641395    -0.06600
C426        C  0.03114679  0.38451408  0.70648524    -0.17700
C427        C  0.04885433  0.34851861  0.70738512     0.10600
C428        C  0.07981998  0.34197793  0.73988677    -0.06500
C429        C  0.09428664  0.37271456  0.76769806    -0.17700
C430        C  0.07655061  0.40880764  0.76684053     0.10600
S431        S  0.03092799  0.31230542  0.66562874    -0.32700
S432        S  0.09447970  0.44478883  0.80884385    -0.32700
H433        H  0.05805433  0.45773507  0.82411886     0.28600
H434        H  0.06601204  0.29283779  0.65999271     0.28600
H435        H  0.00697066  0.38898706  0.68206003     0.19200
H436        H  0.11787317  0.36788685  0.79295261     0.19200
C437        C  0.37707356  0.08255077  0.74914615    -0.06600
C438        C  0.37379233  0.11530542  0.77944869    -0.17700
C439        C  0.33798450  0.13265077  0.78861681     0.10600
C440        C  0.30473668  0.11687094  0.76707104    -0.06500
C441        C  0.30832446  0.08512720  0.73527561    -0.17700
C442        C  0.34399228  0.06844319  0.72523206     0.10600
S443        S  0.33467505  0.17266420  0.83116472    -0.32700
S444        S  0.34545974  0.02996401  0.68036175    -0.32700
H445        H  0.38159822  0.03985771  0.66064149     0.28600
H446        H  0.37423980  0.17699182  0.83902007     0.28600
H447        H  0.39905301  0.12615490  0.79787413     0.19200
H448        H  0.28307079  0.07344532  0.71757199     0.19200
C449        C  0.41715973  0.92191979  0.99969035    -0.06600
C450        C  0.43152074  0.89192649  0.52879080    -0.17700
C451        C  0.41314137  0.85640666  0.53192580     0.10600
C452        C  0.37930606  0.84982877  0.50453149    -0.06500
C453        C  0.36372246  0.88033273  0.97749055    -0.17700
C454        C  0.38216853  0.91606461  0.97442897     0.10600
S455        S  0.43404201  0.82100654  0.57250669    -0.32700
S456        S  0.36131318  0.95164591  0.93428207    -0.32700
H457        H  0.39646314  0.96337640  0.91330393     0.28600
H458        H  0.39914752  0.80317138  0.58509695     0.28600
H459        H  0.45769278  0.89630427  0.54949608     0.19200
H460        H  0.33794864  0.87553398  0.95614278     0.19200
C461        C  0.15705025  0.61457666  0.98258813    -0.06600
C462        C  0.12668903  0.62914598  0.51014288    -0.17700
C463        C  0.09107273  0.61051905  0.51264849     0.10600
C464        C  0.08524191  0.57690725  0.98561642    -0.06500
C465        C  0.11553904  0.56229859  0.95676255    -0.17700
C466        C  0.15092330  0.58088608  0.95428824     0.10600
S467        S  0.05524652  0.63056536  0.55373400    -0.32700
S468        S  0.18630546  0.56077603  0.91249978    -0.32700
H469        H  0.20237858  0.59627627  0.89885239     0.28600
H470        H  0.04258409  0.59496267  0.57221936     0.28600
H471        H  0.13123250  0.65469212  0.53231689     0.19200
H472        H  0.11139520  0.53644293  0.93502691     0.19200
C473        C  0.94658459  0.98768840  0.81388435    -0.06600
C474        C  0.94348576  0.01893718  0.78133055    -0.17700
C475        C  0.97157615  0.04737184  0.77930058     0.10600
C476        C  0.00306881  0.04557256  0.81199476    -0.06500
C477        C  0.00621390  0.01430077  0.84458904    -0.17700
C478        C  0.97826659  0.98554681  0.84616556     0.10600
S479        S  0.96686347  0.08315318  0.73133946    -0.32700
S480        S  0.98398772  0.94796803  0.89155521    -0.32700
H481        H  0.94461052  0.94345382  0.90138018     0.28600
H482        H  0.00619826  0.08432163  0.71960895     0.28600
H483        H  0.91982489  0.02034416  0.75551850     0.19200
H484        H  0.03018706  0.01271949  0.86989278     0.19200
C485        C  0.65148770  0.92150853  0.74584289    -0.06600
C486        C  0.64463384  0.95144982  0.77996616    -0.17700
C487        C  0.60988661  0.97134510  0.78135289     0.10600
C488        C  0.58064617  0.96156363  0.74773246    -0.06500
C489        C  0.58660228  0.93074031  0.71480430    -0.17700
C490        C  0.62179464  0.91109271  0.71288225     0.10600
S491        S  0.60432489  0.00814410  0.82810361    -0.32700
S492        S  0.62764336  0.87515388  0.66530362    -0.32700
H493        H  0.66521556  0.88612870  0.65250129     0.28600
H494        H  0.56553009  0.00025422  0.83821579     0.28600
H495        H  0.66651789  0.95939128  0.80639024     0.19200
H496        H  0.56428787  0.92303666  0.68883388     0.19200
C497        C  0.88218073  0.68913370  0.74118756    -0.06600
C498        C  0.91615858  0.68592753  0.71319060    -0.17700
C499        C  0.93572171  0.65101517  0.70865784     0.10600
C500        C  0.92184968  0.61812411  0.73383507    -0.06500
C501        C  0.88719266  0.62102721  0.76073571    -0.17700
C502        C  0.86758948  0.65613567  0.76523045     0.10600
S503        S  0.97750605  0.65030270  0.66877119    -0.32700
S504        S  0.82595488  0.65753320  0.80522834    -0.32700
H505        H  0.83396442  0.69375307  0.82574413     0.28600
H506        H  0.96992227  0.61382986  0.64862307     0.28600
H507        H  0.92750338  0.71095140  0.69425559     0.19200
H508        H  0.87623303  0.59620434  0.78045221     0.19200
C509        C  0.51723254  0.49679102  0.48359652    -0.06600
C510        C  0.48439339  0.48913906  0.95560349    -0.17700
C511        C  0.45609574  0.51703449  0.94949870     0.10600
C512        C  0.46009599  0.55314334  0.47281201    -0.06500
C513        C  0.49300073  0.56076682  0.50076778    -0.17700
C514        C  0.52141122  0.53291946  0.50682248     0.10600
S515        S  0.41739939  0.50617695  0.90770568    -0.32700
S516        S  0.56079584  0.54452629  0.54716710    -0.32700
H517        H  0.56395610  0.50760424  0.56779768     0.28600
H518        H  0.41284038  0.54399274  0.89048286     0.28600
H519        H  0.48155099  0.46193869  0.93642429     0.19200
H520        H  0.49577535  0.58798009  0.51992591     0.19200
C521        C  0.88491257  0.45284121  0.98033979    -0.06600
C522        C  0.86036813  0.46198449  0.94115725    -0.17700
C523        C  0.82606576  0.44224498  0.93434481     0.10600
C524        C  0.81502007  0.41347836  0.96858291    -0.06500
C525        C  0.83989327  0.40266918  0.50486393    -0.17700
C526        C  0.87461450  0.42216236  0.51183525     0.10600
S527        S  0.79813442  0.45458253  0.88046205    -0.32700
S528        S  0.90346750  0.40858658  0.56434709    -0.32700
H529        H  0.91728288  0.44565469  0.57446087     0.28600
H530        H  0.78212087  0.41787771  0.87423159     0.28600
H531        H  0.86833929  0.48433873  0.91502628     0.19200
H532        H  0.83140891  0.38065772  0.53117095     0.19200
C533        C  0.58254233  0.19204646  0.01173243    -0.06600
C534        C  0.59505391  0.16481197  0.97665253    -0.17700
C535        C  0.57561276  0.12989749  0.97054238     0.10600
C536        C  0.54290706  0.12196744  0.00016477    -0.06500
C537        C  0.53015075  0.14913389  0.53613518    -0.17700
C538        C  0.55008610  0.18342745  0.54301839     0.10600
S539        S  0.59260473  0.09786012  0.92252766    -0.32700
S540        S  0.53516152  0.21339904  0.59435894    -0.32700
H541        H  0.57193731  0.22799246  0.60407334     0.28600
H542        H  0.55609762  0.08510741  0.90810669     0.28600
H543        H  0.61886290  0.17155518  0.95208830     0.19200
H544        H  0.50589715  0.14276702  0.56017303     0.19200
loop_ 
_geom_bond_atom_site_label_1 
_geom_bond_atom_site_label_2 
_geom_bond_distance 
_geom_bond_site_symmetry_2 
_ccdc_geom_bond_type 
N1            N2   1.324   1_556  A
N1            C5   1.350   1_556  A
N1           Cu9   2.094       .  S
N2            C3   1.340       .  A
N2           Cu8   2.064       .  S
C3            C4   1.380       .  A
C3            H6   1.081       .  S
C4            C5   1.389       .  A
C4          C533   1.482       .  S
C5            H7   1.082   1_554  S
Cu8          N11   2.063   1_554  S
Cu9         N291   2.094       .  S
Cu10         N12   2.050       .  S
Cu10        N290   2.050       .  S
N11         N284   1.318       .  A
N11          C15   1.343       .  A
N12         N283   1.318       .  A
N12          C13   1.342       .  A
C13         C286   1.382       .  A
C13          H16   1.082       .  S
C14          C15   1.384       .  A
C14         C285   1.382       .  A
C14         C237   1.473       .  S
C15          H17   1.082   1_556  S
N18         N291   1.323       .  A
N18          C22   1.338       .  A
N18        Cu282   2.052       .  S
N19         N290   1.323       .  A
N19          C20   1.351       .  A
N19        Cu281   2.096       .  S
C20          C21   1.389       .  A
C20         H295   1.082       .  S
C21         C294   1.377       .  A
C21         C252   1.477       .  S
C22         C293   1.377       .  A
C22         H296   1.082       .  S
H23         C292   1.082       .  S
H24         C294   1.082       .  S
N25          N26   1.325       .  A
N25          C29   1.355       .  A
N25         Cu33   2.124       .  S
N26          C27   1.340       .  A
N26         Cu32   2.060       .  S
C27          C28   1.376       .  A
C27          H30   1.082       .  S
C28          C29   1.395       .  A
C28         C225   1.487       .  S
C29          H31   1.081       .  S
Cu32         N35   2.059       .  S
Cu33         N43   2.123       .  S
Cu34         N36   2.051       .  S
Cu34         N42   2.051       .  S
N35          N36   1.317       .  A
N35          C39   1.344       .  A
N36          C37   1.342       .  A
C37          C38   1.384       .  A
C37          H40   1.082       .  S
C38          C39   1.386       .  A
C38         C201   1.476       .  S
C39          H41   1.081       .  S
N42          N43   1.323       .  A
N42          C46   1.337       .  A
N43          C44   1.356       .  A
C44          C45   1.399       .  A
C44          H47   1.081       .  S
C45          C46   1.378       .  A
C45         C213   1.493       .  S
C46          H48   1.082       .  S
N49          N50   1.324       .  A
N49          C53   1.352       .  A
N49         Cu57   2.105       .  S
N50          C51   1.339       .  A
N50         Cu56   2.056       .  S
C51         C324   1.379       .  A
C51          H54   1.082       .  S
C52         C323   1.378       .  A
C52         C325   1.391       .  A
C52         C461   1.482       .  S
C53         C324   1.391       .  A
C53          H55   1.082       .  S
Cu56         N59   2.056       .  S
Cu57        N339   2.105       .  S
Cu58         N60   2.054       .  S
Cu58        N338   2.054       .  S
N59         N332   1.318       .  A
N59          C63   1.342       .  A
N60         N331   1.318       .  A
N60          C61   1.343       .  A
C61          C62   1.383       .  A
C61          H64   1.082       .  S
C62         C335   1.384       .  A
C62         C240   1.472       .  S
C63         C334   1.383       .  A
C63          H65   1.082       .  S
N66         N339   1.323       .  A
N66          C70   1.338       .  A
N66        Cu330   2.054       .  S
N67         N338   1.323       .  A
N67          C68   1.353       .  A
N67        Cu329   2.104       .  S
C68          C69   1.391       .  A
C68         H343   1.082   1_556  S
C69         C342   1.377       .  A
C69         C180   1.482   1_556  S
C70         C341   1.377       .  A
C70         H344   1.082       .  S
H71         C340   1.082       .  S
H72         C342   1.082       .  S
O73         Cu81   2.010       .  S
O73          C83   1.277   1_565  A
O74         Cu81   2.002       .  S
O74          C84   1.275   1_565  A
O75         Cu81   2.011       .  S
O75          C85   1.277       .  A
O76         Cu81   2.009   1_545  S
O76          C86   1.278       .  A
O77         Cu82   2.023       .  S
O77          C86   1.279       .  A
O78         Cu82   2.021       .  S
O78          C85   1.280   1_545  A
O79         Cu82   2.011       .  S
O79          C84   1.277       .  A
O80         Cu82   2.007       .  S
O80          C83   1.276       .  A
Cu81        Cu82   2.376   1_565  S
C83          C98   1.458       .  S
C84          C97   1.456       .  S
C85         C216   1.481       .  S
C86         C165   1.485       .  S
O87        Cu367   2.003   1_554  S
O87          C97   1.276       .  A
O88         Cu95   2.009       .  S
O88          C98   1.276       .  A
O89         Cu95   2.016   1_565  S
O89          C99   1.278       .  A
O90        Cu367   2.010       .  S
O90         C372   1.279       .  A
O91         Cu96   2.009       .  S
O91         C372   1.277       .  A
O92        Cu368   2.009   1_565  S
O92          C99   1.279       .  A
O93        Cu368   2.009       .  S
O93          C98   1.276       .  A
O94         Cu96   2.009   1_554  S
O94          C97   1.277       .  A
Cu95        O359   2.004       .  S
Cu95        O362   2.010       .  S
Cu95       Cu368   2.377       .  S
Cu96        O364   2.008   1_545  S
Cu96        O365   2.009       .  S
Cu96       Cu367   2.377       .  S
C99         C177   1.483       .  S
C100        C264   1.477       .  S
C100        O362   1.279       .  A
C100        O363   1.277       .  A
N101        N102   1.323       .  A
N101        C105   1.349       .  A
N101       Cu109   2.090       .  S
N102        C103   1.342       .  A
N102       Cu108   2.065       .  S
C103        C104   1.381       .  A
C103        H106   1.082       .  S
C104        C105   1.387       .  A
C104        C156   1.480       .  S
C105        H107   1.082       .  S
Cu108       N111   2.063       .  S
Cu109       N119   2.090       .  S
Cu110       N112   2.070       .  S
Cu110       N118   2.072       .  S
N111        N112   1.320       .  A
N111        C115   1.343       .  A
N112        C113   1.345       .  A
C113        C114   1.384       .  A
C113        H116   1.082       .  S
C114        C115   1.384       .  A
C114        C204   1.478       .  S
C115        H117   1.081       .  S
N118        N119   1.323       .  A
N118        C122   1.343       .  A
N119        C120   1.349       .  A
C120        C121   1.387       .  A
C120        H123   1.081       .  S
C121        C122   1.383       .  A
C121        C168   1.483       .  S
C122        H124   1.082       .  S
O125       Cu133   2.023       .  S
O125        C135   1.279       .  A
O126       Cu133   2.013       .  S
O126        C136   1.279   1_655  A
O127       Cu133   2.010       .  S
O127        C137   1.277       .  A
O128       Cu133   2.007       .  S
O128        C138   1.276       .  A
O129       Cu134   2.005       .  S
O129        C138   1.276   1_455  A
O130       Cu134   2.006       .  S
O130        C137   1.276   1_455  A
O131       Cu134   2.013       .  S
O131        C136   1.278       .  A
O132       Cu134   2.019   1_655  S
O132        C135   1.280       .  A
Cu133      Cu134   2.375   1_655  S
C135        C228   1.491       .  S
C136        C153   1.482       .  S
C137        C150   1.458       .  S
C138        C149   1.456       .  S
O139       Cu419   2.010   1_554  S
O139        C149   1.277   1_455  A
O140       Cu147   2.016       .  S
O140        C150   1.278   1_455  A
O141       Cu147   2.005       .  S
O141        C151   1.278       .  A
O142       Cu147   2.006   1_655  S
O142        C152   1.276       .  A
O143       Cu420   2.009       .  S
O143        C152   1.279       .  A
O144       Cu420   2.014   1_455  S
O144        C151   1.278       .  A
O145       Cu420   2.001       .  S
O145        C150   1.275       .  A
O146       Cu148   2.002   1_554  S
O146        C149   1.275       .  A
Cu147       O411   2.011       .  S
Cu147      Cu420   2.377   1_455  S
Cu148       O415   2.009       .  S
Cu148       O416   2.014   1_655  S
Cu148       O417   2.000       .  S
Cu148      Cu419   2.378   1_655  S
C151        C192   1.481       .  S
C152        C249   1.472       .  S
C153        C154   1.404       .  A
C153        C158   1.416       .  A
C154        C155   1.399       .  A
C154        H163   1.084       .  S
C155        C156   1.413       .  A
C155        S159   1.804       .  S
C156        C157   1.402       .  A
C157        C158   1.402       .  A
C157        H164   1.084       .  S
C158        S160   1.802       .  S
S159        H162   1.407       .  S
S160        H161   1.407       .  S
C165        C166   1.407       .  A
C165        C170   1.414       .  A
C166        C167   1.408       .  A
C166        H175   1.082       .  S
C167        C168   1.413       .  A
C167        S171   1.806       .  S
C168        C169   1.403       .  A
C169        C170   1.398       .  A
C169        H176   1.084       .  S
C170        S172   1.804       .  S
S171        H174   1.407       .  S
S172        H173   1.408       .  S
C177        C182   1.417       .  A
C177        C450   1.403       .  A
C178        C179   1.397       .  A
C178        C449   1.403   1_554  A
C178        H187   1.084       .  S
C179        C180   1.415       .  A
C179        S183   1.805       .  S
C180        C453   1.403   1_554  A
C181        C182   1.404       .  A
C181        C452   1.403       .  A
C181        H188   1.084       .  S
C182        S184   1.802       .  S
S183        H186   1.407       .  S
S184        H185   1.407       .  S
C189        C194   1.416       .  A
C189        C462   1.404       .  A
C189        C324   1.483       .  S
C190        C191   1.404       .  A
C190        C461   1.404   1_554  A
C190        H199   1.084       .  S
C191        C464   1.416   1_554  A
C191        S195   1.803       .  S
C192        C193   1.402       .  A
C192        C463   1.416       .  A
C193        C194   1.396       .  A
C193        H200   1.084       .  S
C194        S196   1.804       .  S
S195        H198   1.407       .  S
S196        H197   1.407       .  S
C201        C202   1.402   1_565  A
C201        C206   1.413       .  A
C202        C203   1.396       .  A
C202        H211   1.084       .  S
C203        C204   1.414   1_655  A
C203        S207   1.803       .  S
C204        C205   1.404       .  A
C205        C206   1.400   1_445  A
C205        H212   1.084       .  S
C206        S208   1.803       .  S
S207        H210   1.407   1_655  S
S208        H209   1.406       .  S
C213        C214   1.409       .  A
C213        C218   1.416       .  A
C214        C215   1.397       .  A
C214        H223   1.083       .  S
C215        C216   1.410       .  A
C215        S219   1.805   1_565  S
C216        C217   1.406       .  A
C217        C218   1.407       .  A
C217        H224   1.084       .  S
C218        S220   1.800       .  S
S219        H222   1.406   1_545  S
S220        H221   1.407       .  S
C225        C226   1.405       .  A
C225        C230   1.413       .  A
C226        C227   1.401       .  A
C226        H235   1.084       .  S
C227        C228   1.416       .  A
C227        S231   1.804       .  S
C228        C229   1.408       .  A
C229        C230   1.407       .  A
C229        H236   1.084       .  S
C230        S232   1.802       .  S
S231        H234   1.408       .  S
S232        H233   1.407       .  S
C237        C242   1.413   1_556  A
C237        C510   1.402       .  A
C238        C239   1.396       .  A
C238        C509   1.402       .  A
C238        H247   1.084       .  S
C239        C512   1.411       .  A
C239        S243   1.803       .  S
C240        C241   1.403   1_556  A
C240        C511   1.412       .  A
C241        C242   1.398       .  A
C241        H248   1.084       .  S
C242        S244   1.803       .  S
S243        H246   1.407       .  S
S244        H245   1.406       .  S
C249        C250   1.400       .  A
C249        C526   1.414       .  A
C250        C251   1.395       .  A
C250        H259   1.085       .  S
C251        C252   1.414       .  A
C251        S255   1.804       .  S
C252        C525   1.404       .  A
C253        C254   1.403       .  A
C253        C524   1.404   1_554  A
C253        H260   1.084       .  S
C254        C521   1.414   1_554  A
C254        S256   1.804       .  S
S255        H258   1.407       .  S
S256        H257   1.406       .  S
C261        C262   1.405       .  A
C261        C538   1.415       .  A
C261        C276   1.482       .  S
C262        C263   1.404       .  A
C262        H271   1.084       .  S
C263        C264   1.414       .  A
C263        S267   1.803       .  S
C264        C537   1.401       .  A
C265        C266   1.396       .  A
C265        C536   1.401       .  A
C265        H272   1.084       .  S
C266        C533   1.414       .  A
C266        S268   1.804       .  S
S267        H270   1.407       .  S
S268        H269   1.407       .  S
N273        N274   1.324       .  A
N273        C277   1.351       .  A
N273       Cu281   2.096       .  S
N274        C275   1.340       .  A
N274       Cu280   2.063       .  S
C275        C276   1.380       .  A
C275        H278   1.081       .  S
C276        C277   1.389       .  A
C277        H279   1.081       .  S
Cu280       N283   2.061       .  S
Cu282       N284   2.051       .  S
N283        C287   1.343       .  A
N284        C285   1.343       .  A
C285        H288   1.082       .  S
C286        C287   1.384       .  A
C286        C509   1.472       .  S
C287        H289   1.082       .  S
N290        C294   1.337       .  A
N291        C292   1.351       .  A
C292        C293   1.389       .  A
C293        C524   1.476       .  S
N297        N298   1.325       .  A
N297        C301   1.355       .  A
N297       Cu305   2.121       .  S
N298        C299   1.340       .  A
N298       Cu304   2.060       .  S
C299        C300   1.376       .  A
C299        H302   1.082       .  S
C300        C301   1.394       .  A
C300        C497   1.486       .  S
C301        H303   1.081       .  S
Cu304       N307   2.058       .  S
Cu305       N315   2.120       .  S
Cu306       N308   2.050       .  S
Cu306       N314   2.050       .  S
N307        N308   1.317       .  A
N307        C311   1.344       .  A
N308        C309   1.341       .  A
C309        C310   1.383       .  A
C309        H312   1.081       .  S
C310        C311   1.386       .  A
C310        C473   1.475       .  S
C311        H313   1.081       .  S
N314        N315   1.323       .  A
N314        C318   1.337       .  A
N315        C316   1.355       .  A
C316        C317   1.398       .  A
C316        H319   1.081       .  S
C317        C318   1.378       .  A
C317        C485   1.492       .  S
C318        H320   1.082       .  S
N321        N322   1.324       .  A
N321        C325   1.352       .  A
N321       Cu329   2.104       .  S
N322        C323   1.339       .  A
N322       Cu328   2.056       .  S
C323        H326   1.081       .  S
C325        H327   1.082       .  S
Cu328       N331   2.056       .  S
Cu330       N332   2.053       .  S
N331        C335   1.342       .  A
N332        C333   1.343       .  A
C333        C334   1.382       .  A
C333        H336   1.082       .  S
C334        C512   1.472       .  S
C335        H337   1.082       .  S
N338        C342   1.338       .  A
N339        C340   1.353       .  A
C340        C341   1.391       .  A
C341        C452   1.482       .  S
O345       Cu353   2.010       .  S
O345        C355   1.277   1_565  A
O346       Cu353   2.002       .  S
O346        C356   1.275   1_565  A
O347       Cu353   2.010       .  S
O347        C357   1.277       .  A
O348       Cu353   2.008   1_545  S
O348        C358   1.278       .  A
O349       Cu354   2.022       .  S
O349        C358   1.279       .  A
O350       Cu354   2.020       .  S
O350        C357   1.280   1_545  A
O351       Cu354   2.010       .  S
O351        C356   1.277       .  A
O352       Cu354   2.005       .  S
O352        C355   1.276       .  A
Cu353      Cu354   2.376   1_565  S
C355        C370   1.457       .  S
C356        C369   1.456       .  S
C357        C488   1.480       .  S
C358        C437   1.484       .  S
O359        C369   1.276       .  A
O360       Cu367   2.007       .  S
O360        C370   1.276       .  A
O361       Cu367   2.017   1_565  S
O361        C371   1.278       .  A
O363       Cu368   2.010       .  S
O364        C371   1.279       .  A
O365        C370   1.277       .  A
O366       Cu368   2.007       .  S
O366        C369   1.276       .  A
C371        C449   1.483       .  S
C372        C536   1.476   1_556  S
N373        N374   1.323       .  A
N373        C377   1.350       .  A
N373       Cu381   2.091       .  S
N374        C375   1.342       .  A
N374       Cu380   2.064       .  S
C375        C376   1.380       .  A
C375        H378   1.082       .  S
C376        C377   1.387       .  A
C376        C428   1.479       .  S
C377        H379   1.081       .  S
Cu380       N383   2.062       .  S
Cu381       N391   2.091       .  S
Cu382       N384   2.067       .  S
Cu382       N390   2.069       .  S
N383        N384   1.320       .  A
N383        C387   1.343       .  A
N384        C385   1.344       .  A
C385        C386   1.383       .  A
C385        H388   1.082       .  S
C386        C387   1.384       .  A
C386        C476   1.477       .  S
C387        H389   1.081       .  S
N390        N391   1.323       .  A
N390        C394   1.343       .  A
N391        C392   1.349       .  A
C392        C393   1.388       .  A
C392        H395   1.081       .  S
C393        C394   1.382       .  A
C393        C440   1.483       .  S
C394        H396   1.082       .  S
O397       Cu405   2.023       .  S
O397        C407   1.279       .  A
O398       Cu405   2.013       .  S
O398        C408   1.279   1_655  A
O399       Cu405   2.010       .  S
O399        C409   1.277       .  A
O400       Cu405   2.007       .  S
O400        C410   1.276       .  A
O401       Cu406   2.006       .  S
O401        C410   1.276   1_455  A
O402       Cu406   2.005       .  S
O402        C409   1.276   1_455  A
O403       Cu406   2.013       .  S
O403        C408   1.278       .  A
O404       Cu406   2.018   1_655  S
O404        C407   1.280       .  A
Cu405      Cu406   2.375   1_655  S
C407        C500   1.490       .  S
C408        C425   1.480       .  S
C409        C422   1.457       .  S
C410        C421   1.457       .  S
O411        C421   1.277   1_455  A
O412       Cu419   2.015       .  S
O412        C422   1.278   1_455  A
O413       Cu419   2.003       .  S
O413        C423   1.278       .  A
O414       Cu419   2.004   1_655  S
O414        C424   1.276       .  A
O415        C424   1.279       .  A
O416        C423   1.278       .  A
O417        C422   1.275       .  A
O418       Cu420   2.003       .  S
O418        C421   1.275       .  A
C423        C464   1.480       .  S
C424        C521   1.471       .  S
C425        C426   1.403       .  A
C425        C430   1.416       .  A
C426        C427   1.399       .  A
C426        H435   1.084       .  S
C427        C428   1.413       .  A
C427        S431   1.804       .  S
C428        C429   1.403       .  A
C429        C430   1.402       .  A
C429        H436   1.084       .  S
C430        S432   1.803       .  S
S431        H434   1.407       .  S
S432        H433   1.407       .  S
C437        C438   1.406       .  A
C437        C442   1.414       .  A
C438        C439   1.408       .  A
C438        H447   1.083       .  S
C439        C440   1.412       .  A
C439        S443   1.806       .  S
C440        C441   1.403       .  A
C441        C442   1.398       .  A
C441        H448   1.084       .  S
C442        S444   1.804       .  S
S443        H446   1.407       .  S
S444        H445   1.408       .  S
C449        C454   1.417       .  A
C450        C451   1.397       .  A
C450        H459   1.084       .  S
C451        C452   1.415       .  A
C451        S455   1.805       .  S
C453        C454   1.405       .  A
C453        H460   1.084       .  S
C454        S456   1.802       .  S
S455        H458   1.407       .  S
S456        H457   1.407       .  S
C461        C466   1.416       .  A
C462        C463   1.404       .  A
C462        H471   1.084       .  S
C463        S467   1.803       .  S
C464        C465   1.402       .  A
C465        C466   1.396       .  A
C465        H472   1.084       .  S
C466        S468   1.805       .  S
S467        H470   1.407       .  S
S468        H469   1.407       .  S
C473        C474   1.403   1_565  A
C473        C478   1.413       .  A
C474        C475   1.395       .  A
C474        H483   1.084       .  S
C475        C476   1.414   1_655  A
C475        S479   1.803       .  S
C476        C477   1.404       .  A
C477        C478   1.399   1_445  A
C477        H484   1.084       .  S
C478        S480   1.803       .  S
S479        H482   1.407   1_655  S
S480        H481   1.406       .  S
C485        C486   1.408       .  A
C485        C490   1.416       .  A
C486        C487   1.397       .  A
C486        H495   1.083       .  S
C487        C488   1.410       .  A
C487        S491   1.805   1_565  S
C488        C489   1.406       .  A
C489        C490   1.407       .  A
C489        H496   1.084       .  S
C490        S492   1.800       .  S
S491        H494   1.406       .  S
S492        H493   1.407       .  S
C497        C498   1.404       .  A
C497        C502   1.413       .  A
C498        C499   1.400       .  A
C498        H507   1.084       .  S
C499        C500   1.416       .  A
C499        S503   1.804       .  S
C500        C501   1.408       .  A
C501        C502   1.406       .  A
C501        H508   1.084       .  S
C502        S504   1.802       .  S
S503        H506   1.408       .  S
S504        H505   1.406       .  S
C509        C514   1.413       .  A
C510        C511   1.396       .  A
C510        H519   1.084       .  S
C511        S515   1.803       .  S
C512        C513   1.403       .  A
C513        C514   1.398       .  A
C513        H520   1.084       .  S
C514        S516   1.803       .  S
S515        H518   1.407       .  S
S516        H517   1.406       .  S
C521        C522   1.400       .  A
C522        C523   1.394       .  A
C522        H531   1.085       .  S
C523        C524   1.414       .  A
C523        S527   1.804       .  S
C525        C526   1.403       .  A
C525        H532   1.084       .  S
C526        S528   1.804       .  S
S527        H530   1.407       .  S
S528        H529   1.406       .  S
C533        C534   1.405   1_554  A
C534        C535   1.404       .  A
C534        H543   1.084       .  S
C535        C536   1.415   1_556  A
C535        S539   1.803       .  S
C537        C538   1.396       .  A
C537        H544   1.084       .  S
C538        S540   1.804       .  S
S539        H542   1.407       .  S
S540        H541   1.407       .  S
