geometry optimzed in LAMMPS
_audit_creation_date              2020-12-01 
_audit_creation_method            'lammps2cif' 
_symmetry_space_group_name_H-M    'P1' 
_symmetry_Int_Tables_number       1 
_symmetry_cell_setting            triclinic 
loop_ 
_symmetry_equiv_pos_as_xyz 
  x,y,z 
_cell_length_a                    29.48320244 
_cell_length_b                    29.666997791232834 
_cell_length_c                    29.553321926742026 
_cell_angle_alpha                 89.95808248828956 
_cell_angle_beta                  89.9469757136624 
_cell_angle_gamma                 89.97762961415064 
loop_ 
_atom_site_label 
_atom_site_type_symbol 
_atom_site_fract_x 
_atom_site_fract_y 
_atom_site_fract_z 
_atom_site_charge 
N1          N  0.60698728  0.55469610  0.92480683    -0.05200
N2          N  0.63227889  0.55947890  0.88825617    -0.57300
N3          N  0.57781373  0.58501580  0.03065205    -0.04800
N4          N  0.58387867  0.61217964  0.06542629    -0.59400
N5          N  0.61016774  0.55455198  0.02902888    -0.04400
N6          N  0.63913333  0.56047149  0.06251082    -0.57300
N7          N  0.57565345  0.58621430  0.92638910    -0.04100
N8          N  0.57910737  0.61326445  0.89109313    -0.59800
C9          C  0.61456993  0.59621058  0.86763864     0.97000
C10         C  0.62223175  0.59646418  0.08493679     0.96800
N11         N  0.43932287  0.55317556  0.03189648    -0.05300
N12         N  0.41073925  0.55938738  0.06573831    -0.57900
N13         N  0.46989048  0.58596423  0.92869823    -0.03500
N14         N  0.46294265  0.61525149  0.89586992    -0.59100
N15         N  0.43898406  0.55405130  0.92779469    -0.05400
N16         N  0.41041653  0.56081661  0.89410566    -0.58100
N17         N  0.47115560  0.58423288  0.03240855    -0.03100
N18         N  0.46499978  0.61208969  0.06663442    -0.59200
Mn19       Mn  0.52369741  0.58692871  0.97975431     1.18400
C20         C  0.42723273  0.59620137  0.08717835     0.99100
C21         C  0.42582573  0.59912972  0.87455776     0.99800
N22         N  0.61083276  0.44918396  0.02881127    -0.05400
N23         N  0.64033225  0.44300350  0.06176902    -0.61700
N24         N  0.57663993  0.41775103  0.92610324    -0.04200
N25         N  0.58085797  0.39053143  0.89110841    -0.62400
N26         N  0.60833798  0.44890564  0.92535693    -0.04900
N27         N  0.63529639  0.44320502  0.89018392    -0.62000
N28         N  0.57891525  0.41824883  0.03023564    -0.03800
N29         N  0.58583565  0.39049398  0.06439460    -0.62700
Mn30       Mn  0.61077495  0.50191162  0.97688457     1.10700
C31         C  0.62421912  0.40634719  0.08367197     1.00300
C32         C  0.61759971  0.40676811  0.86921432     1.00400
N33         N  0.44000537  0.44784202  0.92700823    -0.04900
N34         N  0.41205351  0.44133414  0.89278703    -0.60300
N35         N  0.47184538  0.41663019  0.03143003    -0.04200
N36         N  0.46486113  0.38731682  0.06429435    -0.57000
N37         N  0.43941446  0.44707522  0.03072925    -0.05500
N38         N  0.40947720  0.43898145  0.06292124    -0.59800
N39         N  0.47115581  0.41611572  0.92800514    -0.04500
N40         N  0.46490478  0.38706551  0.89484144    -0.57000
Mn41       Mn  0.43787149  0.50059020  0.97924916     1.20200
Mn42       Mn  0.52478052  0.41571422  0.97922211     1.10100
Cl43       Cl  0.52423919  0.50127370  0.97888481    -0.85000
C44         C  0.42806830  0.40333161  0.87317649     0.97300
C45         C  0.42585862  0.40171696  0.08359464     0.97100
N46         N  0.46682748  0.95333400  0.39275573    -0.05200
N47         N  0.45964764  0.92003594  0.36411504    -0.57300
N48         N  0.43632376  0.05673213  0.42607492    -0.04800
N49         N  0.40742300  0.09025474  0.42074390    -0.59400
N50         N  0.46661084  0.05666436  0.39339043    -0.04400
N51         N  0.45865201  0.08977889  0.36469536    -0.57300
N52         N  0.43571142  0.95339405  0.42469939    -0.04100
N53         N  0.40631647  0.92046519  0.41815172    -0.59800
C54         C  0.42183058  0.89993974  0.38033607     0.97000
C55         C  0.42183357  0.11045174  0.38236105     0.96800
N56         N  0.47204227  0.05670045  0.56141893    -0.05300
N57         N  0.46646007  0.09095544  0.58940261    -0.57900
N58         N  0.43919813  0.95274201  0.53140334    -0.03500
N59         N  0.41073433  0.91927690  0.53895769    -0.59100
N60         N  0.47201185  0.95251343  0.56150998    -0.05400
N61         N  0.46702095  0.91845145  0.58982395    -0.58100
N62         N  0.43911032  0.05573226  0.53146002    -0.03100
N63         N  0.41015422  0.08880807  0.53857560    -0.59200
Mn64       Mn  0.43611773  0.00453444  0.47848499     1.18400
C65         C  0.42770597  0.11050384  0.57462188     0.99100
C66         C  0.42867543  0.89814935  0.57532672     0.99800
N67         N  0.57345133  0.05742951  0.39093045    -0.05400
N68         N  0.57925325  0.09187250  0.36315748    -0.61700
N69         N  0.60617757  0.95334337  0.41898182    -0.04200
N70         N  0.63570117  0.92119049  0.40989722    -0.62400
N71         N  0.57330910  0.95346774  0.38893313    -0.04900
N72         N  0.57941982  0.92097120  0.35905068    -0.62000
N73         N  0.60632202  0.05609424  0.42101139    -0.03800
N74         N  0.63538329  0.08912605  0.41413070    -0.62700
Mn75       Mn  0.52000492  0.00525212  0.38996248     1.10700
C76         C  0.61802593  0.11119594  0.37812429     1.00300
C77         C  0.61848233  0.90125486  0.37258014     1.00400
N78         N  0.57737822  0.95184080  0.55790251    -0.04900
N79         N  0.58101602  0.91592162  0.58387539    -0.60300
N80         N  0.60989649  0.05520152  0.52701319    -0.04200
N81         N  0.63785910  0.08965100  0.53205239    -0.57000
N82         N  0.57844313  0.05585550  0.55856675    -0.05500
N83         N  0.58401764  0.09083846  0.58549847    -0.59800
N84         N  0.60765837  0.95066110  0.52522229    -0.04500
N85         N  0.63238726  0.91359542  0.52811775    -0.57000
Mn86       Mn  0.52515807  0.00442152  0.56149872     1.20200
Mn87       Mn  0.60919336  0.00371350  0.47316607     1.10100
Cl88       Cl  0.52262522  0.00447076  0.47573368    -0.85000
C89         C  0.61541055  0.89241212  0.56503156     0.97300
C90         C  0.62124362  0.11150866  0.56868952     0.97100
N91         N  0.97103826  0.56063477  0.39852060    -0.05200
N92         N  0.93814394  0.56841566  0.36931760    -0.57300
N93         N  0.07575724  0.58993758  0.43040256    -0.04800
N94         N  0.11093316  0.61688331  0.42504050    -0.59400
N95         N  0.07469627  0.55936287  0.39822864    -0.04400
N96         N  0.10879169  0.56508463  0.36993974    -0.57300
N97         N  0.97121711  0.59151532  0.43043140    -0.04100
N98         N  0.93805414  0.62072645  0.42387482    -0.59800
C99         C  0.91778258  0.60588127  0.38562284     0.97000
C100        C  0.13106001  0.60093508  0.38720000     0.96800
N101        N  0.07565928  0.55886108  0.56810094    -0.05300
N102        N  0.10930311  0.56549778  0.59676621    -0.57900
N103        N  0.97178969  0.59053206  0.53661851    -0.03500
N104        N  0.93679642  0.61778371  0.54165511    -0.59100
N105        N  0.97121605  0.55872763  0.56765078    -0.05400
N106        N  0.93549595  0.56333599  0.59418352    -0.58100
N107        N  0.07616756  0.58965570  0.53605880    -0.03100
N108        N  0.11050466  0.61755119  0.54179430    -0.59200
Mn109      Mn  0.02375795  0.59200760  0.48344821     1.18400
C110        C  0.13073785  0.60202602  0.57970441     0.99100
C111        C  0.91456051  0.60040177  0.57765429     0.99800
N112        N  0.07379161  0.45390083  0.39709343    -0.05400
N113        N  0.10663717  0.44714804  0.36754734    -0.61700
N114        N  0.97027558  0.42320702  0.42998204    -0.04200
N115        N  0.93671112  0.39450309  0.42364582    -0.62400
N116        N  0.97034675  0.45418410  0.39810457    -0.04900
N117        N  0.93727311  0.44685854  0.36897066    -0.62000
N118        N  0.07472704  0.42299658  0.42900461    -0.03800
N119        N  0.10860869  0.39474727  0.42213031    -0.62700
Mn120      Mn  0.02232425  0.50707434  0.39653134     1.10700
C121        C  0.12808113  0.41026962  0.38369807     1.00300
C122        C  0.91654127  0.40969763  0.38552291     1.00400
N123        N  0.97161459  0.45332149  0.56818148    -0.04900
N124        N  0.93699159  0.44777841  0.59594172    -0.60300
N125        N  0.07546847  0.42213367  0.53562351    -0.04200
N126        N  0.10870922  0.39301821  0.54196013    -0.57000
N127        N  0.07520485  0.45254309  0.56801657    -0.05500
N128        N  0.10787773  0.44442347  0.59745255    -0.59800
N129        N  0.97095212  0.42283405  0.53592098    -0.04500
N130        N  0.93549340  0.39617885  0.54062620    -0.57000
Mn131      Mn  0.02351065  0.50595930  0.56960891     1.20200
Mn132      Mn  0.02295119  0.42129574  0.48265035     1.10100
Cl133      Cl  0.02313858  0.50655140  0.48306074    -0.85000
C134        C  0.91488951  0.41204260  0.57825471     0.97300
C135        C  0.12850985  0.40732898  0.58060758     0.97100
C136        C  0.76266435  0.32469757  0.30120512     0.04100
C137        C  0.74348044  0.28509573  0.31882951    -0.12100
C138        C  0.70630949  0.26481190  0.29734473     0.01600
C139        C  0.68958813  0.28350569  0.25717162    -0.10600
C140        C  0.70704988  0.32413276  0.24020179     0.04100
C141        C  0.74344338  0.34466178  0.26271499    -0.10000
H142        H  0.75721122  0.27030799  0.34939434     0.09700
H143        H  0.66244022  0.26643879  0.23937429     0.07200
H144        H  0.75640987  0.37677300  0.25091112     0.07100
C145        C  0.76050320  0.68574104  0.30031720     0.04100
C146        C  0.73969412  0.66253446  0.26449784    -0.12100
C147        C  0.70314641  0.68157159  0.24088085     0.01600
C148        C  0.68619301  0.72355925  0.25468427    -0.10600
C149        C  0.70408556  0.74562116  0.29259897     0.04100
C150        C  0.74198663  0.72702287  0.31456922    -0.10000
H151        H  0.75179618  0.62934993  0.25519690     0.09700
H152        H  0.65885718  0.73919378  0.23590610     0.07200
H153        H  0.75687393  0.74458468  0.34298093     0.07100
C154        C  0.68979043  0.33393527  0.70379539     0.04100
C155        C  0.67268944  0.29443875  0.68406205    -0.12100
C156        C  0.69212210  0.27690727  0.64429960     0.01600
C157        C  0.72968886  0.29898570  0.62511843    -0.10600
C158        C  0.74778920  0.33773310  0.64542876     0.04100
C159        C  0.72674479  0.35575597  0.68373333    -0.10000
H160        H  0.64517585  0.27658124  0.70054017     0.09700
H161        H  0.74548104  0.28556508  0.59491824     0.07200
H162        H  0.73977488  0.38664373  0.69849380     0.07100
C163        C  0.34064311  0.74335898  0.29781828     0.04100
C164        C  0.35867943  0.72391538  0.25834427    -0.12100
C165        C  0.34434605  0.68111110  0.24359128     0.01600
C166        C  0.30984874  0.65916472  0.26787772    -0.10600
C167        C  0.28883068  0.68004055  0.30487909     0.04100
C168        C  0.30501275  0.72160236  0.32033304    -0.10000
H169        H  0.38417408  0.74222453  0.23945323     0.09700
H170        H  0.29917807  0.62558548  0.25834827     0.07200
H171        H  0.29004627  0.73679822  0.35013019     0.07100
C172        C  0.34637355  0.74281013  0.65952140     0.04100
C173        C  0.36533868  0.72261486  0.69813057    -0.12100
C174        C  0.34384761  0.68595340  0.71946381     0.01600
C175        C  0.30284132  0.66986219  0.70154904    -0.10600
C176        C  0.28489339  0.68804103  0.66168795     0.04100
C177        C  0.30658788  0.72464072  0.64099775    -0.10000
H178        H  0.39693778  0.73549672  0.71141198     0.09700
H179        H  0.28519378  0.64233670  0.71795012     0.07200
H180        H  0.29255817  0.73878468  0.61021219     0.07100
C181        C  0.34390514  0.32101846  0.71819574     0.04100
C182        C  0.36308222  0.28296747  0.69764828    -0.12100
C183        C  0.34291618  0.26357661  0.65939194     0.01600
C184        C  0.30292818  0.28234835  0.64198013    -0.10600
C185        C  0.28341489  0.32059807  0.66201490     0.04100
C186        C  0.30396678  0.33960471  0.70031973    -0.10000
H187        H  0.39401900  0.26872536  0.71115009     0.09700
H188        H  0.28740413  0.26768934  0.61212974     0.07200
H189        H  0.28930133  0.36934979  0.71578243     0.07100
C190        C  0.68317820  0.66850323  0.69911454     0.04100
C191        C  0.72590363  0.65394735  0.68415985    -0.12100
C192        C  0.74572010  0.67215765  0.64509716     0.01600
C193        C  0.72390086  0.70775876  0.62263524    -0.10600
C194        C  0.68185519  0.72399630  0.63794856     0.04100
C195        C  0.66076476  0.70257047  0.67482990    -0.10000
H196        H  0.74439018  0.62886413  0.70344649     0.09700
H197        H  0.74014587  0.72336839  0.59376605     0.07200
H198        H  0.62724324  0.71327638  0.68532894     0.07100
C199        C  0.33652323  0.26357914  0.29828841     0.04100
C200        C  0.35680542  0.28203084  0.25955115    -0.12100
C201        C  0.34086557  0.32251973  0.24083031     0.01600
C202        C  0.30430175  0.34470916  0.26169011    -0.10600
C203        C  0.28258604  0.32575526  0.29945374     0.04100
C204        C  0.29856528  0.28488247  0.31713663    -0.10000
H205        H  0.38546148  0.26502374  0.24425447     0.09700
H206        H  0.29313015  0.37708566  0.24897350     0.07200
H207        H  0.28144126  0.26957209  0.34570999     0.06700
C208        C  0.20491410  0.37240224  0.57505138     0.24600
C209        C  0.16765977  0.38498914  0.60171472    -0.23500
C210        C  0.16807069  0.37587528  0.64835642     0.19500
C211        C  0.20534664  0.35420051  0.66803748     0.24500
C212        C  0.24306832  0.34213042  0.64139984    -0.23500
C213        C  0.24250037  0.35161095  0.59473603     0.19400
F214        F  0.27900450  0.34208675  0.56836731    -0.13500
F215        F  0.20562281  0.38181203  0.53012046    -0.15800
F216        F  0.20416679  0.34413196  0.71285958    -0.15800
F217        F  0.13180363  0.38668864  0.67454774    -0.13500
C218        C  0.16817161  0.63724634  0.64615858     0.24600
C219        C  0.17008545  0.62360793  0.60077411    -0.23500
C220        C  0.20941780  0.63160697  0.57532920     0.19500
C221        C  0.24669742  0.65283452  0.59511879     0.24500
C222        C  0.24477236  0.66705799  0.64047903    -0.23500
C223        C  0.20512643  0.65923430  0.66581903     0.19400
F224        F  0.20193376  0.67357929  0.70932493    -0.13500
F225        F  0.13001513  0.63041212  0.67098875    -0.15800
F226        F  0.28523478  0.65810310  0.57046585    -0.15800
F227        F  0.21228593  0.61732601  0.53182095    -0.13500
C228        C  0.24665428  0.65352719  0.37361559     0.24600
C229        C  0.24893651  0.65894950  0.32638837    -0.23500
C230        C  0.21211841  0.64519734  0.29949811     0.19500
C231        C  0.17392634  0.62585197  0.31940630     0.24500
C232        C  0.17156615  0.62079960  0.36652525    -0.23500
C233        C  0.20798619  0.63492132  0.39356049     0.19400
F234        F  0.20661769  0.62950611  0.43912295    -0.13500
F235        F  0.28215293  0.66540997  0.40030334    -0.15800
F236        F  0.13848862  0.61363559  0.29278125    -0.15800
F237        F  0.21250984  0.65187191  0.25403086    -0.13500
C238        C  0.20737791  0.36500744  0.29425092     0.24600
C239        C  0.24341215  0.34864779  0.32083735    -0.23500
C240        C  0.24132599  0.35346673  0.36819832     0.19500
C241        C  0.20353896  0.37323474  0.38856433     0.24500
C242        C  0.16770850  0.38947566  0.36199704    -0.23500
C243        C  0.17002031  0.38567893  0.31468621     0.19400
F244        F  0.13531300  0.40039528  0.28834811    -0.13500
F245        F  0.20756989  0.35961867  0.24862299    -0.15800
F246        F  0.20253860  0.37770457  0.43424867    -0.15800
F247        F  0.27628831  0.33985773  0.39479394    -0.13500
C248        C  0.79574785  0.60704441  0.62453196     0.24600
C249        C  0.78939941  0.65397984  0.62818062    -0.23500
C250        C  0.82491355  0.68305389  0.61538906     0.19500
C251        C  0.86559131  0.66552352  0.59865809     0.24500
C252        C  0.87187216  0.61872804  0.59552186    -0.23500
C253        C  0.83683656  0.58959272  0.60885067     0.19400
F254        F  0.84172505  0.54422622  0.60504140    -0.13500
F255        F  0.76166711  0.57801921  0.63489787    -0.15800
F256        F  0.89939934  0.69426805  0.58676316    -0.15800
F257        F  0.82077532  0.72838451  0.62016069    -0.13500
C258        C  0.83601742  0.38595472  0.56617614     0.24600
C259        C  0.87202147  0.39433598  0.59591606    -0.23500
C260        C  0.86676188  0.38553744  0.64221454     0.19500
C261        C  0.82626779  0.36711518  0.65833704     0.24500
C262        C  0.79021645  0.35806460  0.62836910    -0.23500
C263        C  0.79532028  0.36806615  0.58219761     0.19400
F264        F  0.76059730  0.36147496  0.55279377    -0.13500
F265        F  0.83982315  0.39669427  0.52179914    -0.15800
F266        F  0.82282738  0.35678236  0.70298636    -0.15800
F267        F  0.90134610  0.39327415  0.67151520    -0.13500
C268        C  0.84029844  0.35858213  0.29695550     0.24600
C269        C  0.80245497  0.34578364  0.32308773    -0.23500
C270        C  0.80279477  0.35379918  0.36996897     0.19500
C271        C  0.84030936  0.37412428  0.39025486     0.24500
C272        C  0.87753761  0.38767533  0.36402632    -0.23500
C273        C  0.87734598  0.37982383  0.31723777     0.19400
F274        F  0.91365652  0.39139627  0.29143334    -0.13500
F275        F  0.84180694  0.34960902  0.25192630    -0.15800
F276        F  0.83960748  0.38206822  0.43534831    -0.15800
F277        F  0.76627671  0.34328461  0.39593999    -0.13500
C278        C  0.83635184  0.64731972  0.29609105     0.24600
C279        C  0.80155648  0.66665542  0.32248607    -0.23500
C280        C  0.80638936  0.66720190  0.36994736     0.19500
C281        C  0.84487957  0.64862744  0.39038546     0.24500
C282        C  0.87855004  0.62788387  0.36398036    -0.23500
C283        C  0.87404308  0.62751360  0.31667769     0.19400
F284        F  0.90671104  0.60889913  0.29018191    -0.13500
F285        F  0.83440301  0.64828151  0.25018275    -0.15800
F286        F  0.84826227  0.64924303  0.43619819    -0.15800
F287        F  0.77314428  0.68409647  0.39684390    -0.13500
C288        C  0.62710872  0.22813637  0.61950222     0.24600
C289        C  0.67418980  0.23473758  0.62386171    -0.23500
C290        C  0.70384527  0.20039348  0.60913268     0.19500
C291        C  0.68673547  0.16069248  0.59011511     0.24500
C292        C  0.63975805  0.15391994  0.58692377    -0.23500
C293        C  0.61018859  0.18783244  0.60194362     0.19400
F294        F  0.56472096  0.18238262  0.59849558    -0.13500
F295        F  0.59734617  0.26102797  0.63139048    -0.15800
F296        F  0.71606978  0.12807528  0.57661130    -0.15800
F297        F  0.74936957  0.20440655  0.61466553    -0.13500
C298        C  0.33864757  0.18628997  0.62540073     0.24600
C299        C  0.36446069  0.22445853  0.63700385    -0.23500
C300        C  0.41116910  0.22502544  0.62708534     0.19500
C301        C  0.43182104  0.18765510  0.60716217     0.24500
C302        C  0.40608707  0.14961706  0.59594036    -0.23500
C303        C  0.35926807  0.14937214  0.60450787     0.19400
F304        F  0.33375192  0.11279273  0.59386960    -0.13500
F305        F  0.29373808  0.18419863  0.63538288    -0.15800
F306        F  0.47660623  0.18933090  0.59709445    -0.15800
F307        F  0.43660420  0.26223761  0.63552035    -0.13500
C308        C  0.36983586  0.18589531  0.29402558     0.24600
C309        C  0.35628691  0.22319080  0.32016421    -0.23500
C310        C  0.36368147  0.22250118  0.36728416     0.19500
C311        C  0.38419024  0.18527638  0.38770701     0.24500
C312        C  0.39898368  0.14892766  0.36122427    -0.23500
C313        C  0.39175535  0.14944060  0.31432384     0.19400
F314        F  0.40489272  0.11405685  0.28829762    -0.13500
F315        F  0.36126638  0.18439200  0.24891839    -0.15800
F316        F  0.39137417  0.18558924  0.43309798    -0.15800
F317        F  0.35274225  0.25857132  0.39338422    -0.13500
C318        C  0.61458660  0.18722476  0.34215242     0.24600
C319        C  0.64020180  0.15010957  0.35672651    -0.23500
C320        C  0.68756628  0.15056939  0.35146384     0.19500
C321        C  0.70909889  0.18754356  0.33159727     0.24500
C322        C  0.68365811  0.22506916  0.31751768    -0.23500
C323        C  0.63618049  0.22466709  0.32316840     0.19400
F324        F  0.61082526  0.26111799  0.31158046    -0.13500
F325        F  0.56888505  0.18796919  0.34790091    -0.15800
F326        F  0.75468488  0.18621527  0.32517418    -0.15800
F327        F  0.71291071  0.11459263  0.36443116    -0.13500
C328        C  0.36112518  0.85750344  0.60478316     0.24600
C329        C  0.40808167  0.85874417  0.59730492    -0.23500
C330        C  0.43505667  0.82218638  0.61089058     0.19500
C331        C  0.41510300  0.78422664  0.63068747     0.24500
C332        C  0.36794097  0.78285933  0.63841525    -0.23500
C333        C  0.34128170  0.82022570  0.62576196     0.19400
F334        F  0.29610473  0.82120146  0.63471033    -0.13500
F335        F  0.33462229  0.89309690  0.59308103    -0.15800
F336        F  0.44174977  0.74832056  0.64095198    -0.15800
F337        F  0.48052244  0.82254492  0.60346724    -0.13500
C338        C  0.64551563  0.79981625  0.64712641     0.24600
C339        C  0.66216923  0.76581083  0.61827418    -0.23500
C340        C  0.66254188  0.77366363  0.57119572     0.19500
C341        C  0.64805498  0.81513143  0.55368013     0.24500
C342        C  0.63158683  0.84884224  0.58277684    -0.23500
C343        C  0.62977108  0.84048602  0.62949185     0.19400
F344        F  0.61443520  0.87253092  0.65852058    -0.13500
F345        F  0.64630602  0.79471838  0.69277683    -0.15800
F346        F  0.64909276  0.82186440  0.50823569    -0.15800
F347        F  0.67630788  0.74104187  0.54204613    -0.13500
C348        C  0.68733594  0.86152603  0.34432829     0.24600
C349        C  0.64002564  0.86297609  0.34946411    -0.23500
C350        C  0.61363168  0.82702251  0.33360403     0.19500
C351        C  0.63438900  0.78903064  0.31488765     0.24500
C352        C  0.68198894  0.78703990  0.31026687    -0.23500
C353        C  0.70812040  0.82420291  0.32428132     0.19400
F354        F  0.75375047  0.82469922  0.31811083    -0.13500
F355        F  0.71339889  0.89670510  0.35795403    -0.15800
F356        F  0.60795440  0.75341530  0.30321899    -0.15800
F357        F  0.56784862  0.82768166  0.33829792    -0.13500
C358        C  0.33358385  0.82023185  0.33333380     0.24600
C359        C  0.36099063  0.78472377  0.31729050    -0.23500
C360        C  0.40834355  0.78762161  0.32252885     0.19500
C361        C  0.42789308  0.82531888  0.34282193     0.24500
C362        C  0.40056507  0.86036357  0.35925870    -0.23500
C363        C  0.35323457  0.85747159  0.35477399     0.19400
F364        F  0.32613613  0.89122140  0.37004874    -0.13500
F365        F  0.28789714  0.81924264  0.32762775    -0.15800
F366        F  0.47356893  0.82671457  0.34816098    -0.15800
F367        F  0.43570852  0.75309417  0.30966905    -0.13500
C368        C  0.69304134  0.38622699  0.12858453     0.24600
C369        C  0.64566190  0.38608562  0.12368533    -0.23500
C370        C  0.61867267  0.36611815  0.15724237     0.19500
C371        C  0.63857241  0.34684910  0.19537060     0.24500
C372        C  0.68613222  0.34573858  0.19999961    -0.23500
C373        C  0.71319196  0.36562652  0.16606597     0.19400
F374        F  0.75916412  0.36405455  0.16837331    -0.13500
F375        F  0.71996056  0.40489610  0.09631747    -0.15800
F376        F  0.61104434  0.33042614  0.22834309    -0.15800
F377        F  0.57277451  0.36648609  0.15386783    -0.13500
C378        C  0.61556183  0.63610504  0.15891464     0.24600
C379        C  0.64300613  0.61633718  0.12556442    -0.23500
C380        C  0.69031834  0.61634580  0.13106877     0.19500
C381        C  0.70996452  0.63737807  0.16854336     0.24500
C382        C  0.68250415  0.65775835  0.20182091    -0.23500
C383        C  0.63501192  0.65602974  0.19697803     0.19400
F384        F  0.60722886  0.67291391  0.22949347    -0.13500
F385        F  0.56971718  0.63520265  0.15522449    -0.15800
F386        F  0.75589467  0.63923094  0.17127715    -0.15800
F387        F  0.71770770  0.59764020  0.09924070    -0.13500
C388        C  0.33927248  0.63357200  0.17281020     0.24600
C389        C  0.36560087  0.65909240  0.20340424    -0.23500
C390        C  0.41259921  0.66300617  0.19532572     0.19500
C391        C  0.43230722  0.64324548  0.15719093     0.24500
C392        C  0.40610368  0.61725837  0.12731470    -0.23500
C393        C  0.35949955  0.61216756  0.13579982     0.19400
F394        F  0.33300328  0.58774580  0.10736641    -0.13500
F395        F  0.29359801  0.63029022  0.17765576    -0.15800
F396        F  0.47743468  0.64875931  0.15017002    -0.15800
F397        F  0.44005160  0.68483595  0.22494093    -0.13500
C398        C  0.35660245  0.37902369  0.12659198     0.24600
C399        C  0.40406724  0.37982880  0.12265526    -0.23500
C400        C  0.43067987  0.36050546  0.15688224     0.19500
C401        C  0.41032122  0.34244111  0.19549837     0.24500
C402        C  0.36269903  0.34183654  0.19985753    -0.23500
C403        C  0.33606198  0.35966730  0.16454037     0.19400
F404        F  0.29007874  0.35754661  0.16622453    -0.13500
F405        F  0.33001581  0.39589330  0.09311372    -0.15800
F406        F  0.43743598  0.32708483  0.22927097    -0.15800
F407        F  0.47660613  0.36073189  0.15384772    -0.13500
C408        C  0.64343870  0.67822437  0.77389609     0.24600
C409        C  0.66334253  0.64962696  0.74136612    -0.23500
C410        C  0.66598942  0.60307149  0.75055017     0.19500
C411        C  0.65049876  0.58581291  0.79175613     0.24500
C412        C  0.63086001  0.61447783  0.82413578    -0.23500
C413        C  0.62682140  0.66069729  0.81455979     0.19400
F414        F  0.60840150  0.68933572  0.84533924    -0.13500
F415        F  0.64170513  0.72349284  0.76734889    -0.15800
F416        F  0.65379240  0.54080345  0.79949497    -0.15800
F417        F  0.68300797  0.57400663  0.71937619    -0.13500
C418        C  0.68260809  0.38161956  0.82220274     0.24600
C419        C  0.63572617  0.38750144  0.82732204    -0.23500
C420        C  0.60632083  0.37499223  0.79217126     0.19500
C421        C  0.62376271  0.35758072  0.75182379     0.24500
C422        C  0.67080331  0.35153631  0.74660026    -0.23500
C423        C  0.70000544  0.36322429  0.78241655     0.19400
F424        F  0.74538846  0.35600190  0.77925718    -0.13500
F425        F  0.71147047  0.39243928  0.85629393    -0.15800
F426        F  0.59486034  0.34804019  0.71739540    -0.15800
F427        F  0.56086801  0.38124371  0.79629101    -0.13500
C428        C  0.37947150  0.31540221  0.79497677     0.24600
C429        C  0.36630476  0.34192160  0.75771301    -0.23500
C430        C  0.37503125  0.38854449  0.75827407     0.19500
C431        C  0.39514477  0.40849165  0.79601915     0.24500
C432        C  0.40767144  0.38206274  0.83331362    -0.23500
C433        C  0.40041377  0.33531243  0.83233694     0.19400
F434        F  0.41210631  0.30917499  0.86822801    -0.13500
F435        F  0.37093583  0.27042451  0.79575205    -0.15800
F436        F  0.40375385  0.45343776  0.79559990    -0.15800
F437        F  0.36516008  0.41459999  0.72179516    -0.13500
C438        C  0.38218320  0.59550006  0.80236077     0.24600
C439        C  0.40447672  0.62120515  0.83535688    -0.23500
C440        C  0.40657703  0.66825256  0.83047500     0.19500
C441        C  0.38600228  0.68939560  0.79359154     0.24500
C442        C  0.36458713  0.66370540  0.75964367    -0.23500
C443        C  0.36344120  0.61632809  0.76434840     0.19400
F444        F  0.34556861  0.58974226  0.73151600    -0.13500
F445        F  0.37988742  0.54993576  0.80602105    -0.15800
F446        F  0.38608707  0.73512745  0.79197515    -0.15800
F447        F  0.42737344  0.69406912  0.86219914    -0.13500
loop_ 
_geom_bond_atom_site_label_1 
_geom_bond_atom_site_label_2 
_geom_bond_distance 
_geom_bond_site_symmetry_2 
_ccdc_geom_bond_type 
N1            N2   1.320       .  A
N1            N7   1.315       .  A
N1          Mn30   2.198       .  S
N2            C9   1.353       .  A
N3            N5   1.315       .  A
N3            N4   1.319       .  A
N3          Mn19   2.194   1_554  S
N4           C10   1.352       .  A
N5            N6   1.320       .  A
N5          Mn30   2.195   1_554  S
N6           C10   1.352       .  A
N7            N8   1.320       .  A
N7          Mn19   2.198       .  S
N8            C9   1.352       .  A
C9          C412   1.475       .  S
C10         C379   1.472       .  S
N11          N17   1.316       .  A
N11          N12   1.320       .  A
N11         Mn41   2.205   1_554  S
N12          C20   1.354       .  A
N13          N14   1.318       .  A
N13          N15   1.315       .  A
N13         Mn19   2.191       .  S
N14          C21   1.351       .  A
N15          N16   1.320       .  A
N15         Mn41   2.197       .  S
N16          C21   1.353       .  A
N17          N18   1.319       .  A
N17         Mn19   2.196   1_554  S
N18          C20   1.353       .  A
Mn19        Cl43   2.541       .  S
C20         C392   1.478       .  S
C21         C439   1.472       .  S
N22          N23   1.319       .  A
N22          N28   1.315       .  A
N22         Mn30   2.191   1_554  S
N23          C31   1.351       .  A
N24          N26   1.315       .  A
N24          N25   1.318       .  A
N24         Mn42   2.191       .  S
N25          C32   1.350       .  A
N26          N27   1.319       .  A
N26         Mn30   2.191       .  S
N27          C32   1.352       .  A
N28          N29   1.318       .  A
N28         Mn42   2.198   1_554  S
N29          C31   1.352       .  A
Mn30        Cl43   2.552       .  S
C31         C369   1.469       .  S
C32         C419   1.464       .  S
N33          N34   1.320       .  A
N33          N39   1.315       .  A
N33         Mn41   2.200       .  S
N34          C44   1.353       .  A
N35          N36   1.319       .  A
N35          N37   1.315       .  A
N35         Mn42   2.194   1_554  S
N36          C45   1.352       .  A
N37          N38   1.319       .  A
N37         Mn41   2.199   1_554  S
N38          C45   1.352       .  A
N39          N40   1.319       .  A
N39         Mn42   2.190       .  S
N40          C44   1.350       .  A
Mn41        Cl43   2.546       .  S
Mn42        Cl43   2.538       .  S
C44         C432   1.466       .  S
C45         C399   1.471       .  S
N46          N47   1.319       .  A
N46          N52   1.316       .  A
N46         Mn75   2.200   1_565  S
N47          C54   1.352       .  A
N48          N50   1.315       .  A
N48          N49   1.319       .  A
N48         Mn64   2.189       .  S
N49          C55   1.351       .  A
N50          N51   1.318       .  A
N50         Mn75   2.194       .  S
N51          C55   1.351       .  A
N52          N53   1.321       .  A
N52         Mn64   2.198   1_565  S
N53          C54   1.352       .  A
C54         C362   1.470       .  S
C55         C312   1.465       .  S
N56          N62   1.315       .  A
N56          N57   1.321       .  A
N56         Mn86   2.204       .  S
N57          C65   1.354       .  A
N58          N59   1.319       .  A
N58          N60   1.315       .  A
N58         Mn64   2.194   1_565  S
N59          C66   1.352       .  A
N60          N61   1.320       .  A
N60         Mn86   2.197   1_565  S
N61          C66   1.351       .  A
N62          N63   1.317       .  A
N62         Mn64   2.184       .  S
N63          C65   1.349       .  A
Mn64        Cl88   2.552       .  S
C65         C302   1.466       .  S
C66         C329   1.468       .  S
N67          N68   1.321       .  A
N67          N73   1.316       .  A
N67         Mn75   2.210       .  S
N68          C76   1.354       .  A
N69          N71   1.315       .  A
N69          N70   1.319       .  A
N69         Mn87   2.193   1_565  S
N70          C77   1.351       .  A
N71          N72   1.320       .  A
N71         Mn75   2.198   1_565  S
N72          C77   1.352       .  A
N73          N74   1.318       .  A
N73         Mn87   2.190       .  S
N74          C76   1.350       .  A
Mn75        Cl88   2.536       .  S
C76         C319   1.469       .  S
C77         C349   1.470       .  S
N78          N79   1.317       .  A
N78          N84   1.315       .  A
N78         Mn86   2.194   1_565  S
N79          C89   1.351       .  A
N80          N81   1.322       .  A
N80          N82   1.315       .  A
N80         Mn87   2.207       .  S
N81          C90   1.354       .  A
N82          N83   1.319       .  A
N82         Mn86   2.192       .  S
N83          C90   1.351       .  A
N84          N85   1.322       .  A
N84         Mn87   2.201   1_565  S
N85          C89   1.354       .  A
Mn86        Cl88   2.536       .  S
Mn87        Cl88   2.553       .  S
C89         C342   1.474       .  S
C90         C292   1.474       .  S
N91          N92   1.319       .  A
N91          N97   1.315       .  A
N91        Mn120   2.194   1_655  S
N92          C99   1.352       .  A
N93          N95   1.315       .  A
N93          N94   1.319       .  A
N93        Mn109   2.193       .  S
N94         C100   1.351       .  A
N95          N96   1.318       .  A
N95        Mn120   2.190       .  S
N96         C100   1.351       .  A
N97          N98   1.321       .  A
N97        Mn109   2.204   1_655  S
N98          C99   1.353       .  A
C99         C282   1.474       .  S
C100        C232   1.465       .  S
N101        N107   1.315       .  A
N101        N102   1.320       .  A
N101       Mn131   2.198       .  S
N102        C110   1.352       .  A
N103        N104   1.319       .  A
N103        N105   1.315       .  A
N103       Mn109   2.194   1_655  S
N104        C111   1.351       .  A
N105        N106   1.320       .  A
N105       Mn131   2.198   1_655  S
N106        C111   1.352       .  A
N107        N108   1.319       .  A
N107       Mn109   2.194       .  S
N108        C110   1.350       .  A
Mn109      Cl133   2.535       .  S
C110        C219   1.465       .  S
C111        C252   1.469       .  S
N112        N113   1.319       .  A
N112        N118   1.315       .  A
N112       Mn120   2.188       .  S
N113        C121   1.350       .  A
N114        N116   1.316       .  A
N114        N115   1.319       .  A
N114       Mn132   2.201   1_655  S
N115        C122   1.351       .  A
N116        N117   1.320       .  A
N116       Mn120   2.194   1_655  S
N117        C122   1.352       .  A
N118        N119   1.319       .  A
N118       Mn132   2.200       .  S
N119        C121   1.353       .  A
Mn120      Cl133   2.557       .  S
C121        C242   1.468       .  S
C122        C272   1.468       .  S
N123        N124   1.319       .  A
N123        N129   1.315       .  A
N123       Mn131   2.187   1_655  S
N124        C134   1.350       .  A
N125        N126   1.320       .  A
N125        N127   1.316       .  A
N125       Mn132   2.203       .  S
N126        C135   1.352       .  A
N127        N128   1.321       .  A
N127       Mn131   2.199       .  S
N128        C135   1.352       .  A
N129        N130   1.318       .  A
N129       Mn132   2.197   1_655  S
N130        C134   1.351       .  A
Mn131      Cl133   2.558       .  S
Mn132      Cl133   2.529       .  S
C134        C259   1.464       .  S
C135        C209   1.470       .  S
C136        C269   1.479       .  S
C136        C137   1.404       .  A
C136        C141   1.402       .  A
C137        C138   1.403       .  A
C137        H142   1.083       .  S
C138        C322   1.480       .  S
C138        C139   1.400       .  A
C139        C140   1.403       .  A
C139        H143   1.084       .  S
C140        C372   1.484       .  S
C140        C141   1.403       .  A
C141        H144   1.084       .  S
C145        C279   1.488       .  S
C145        C146   1.405       .  A
C145        C150   1.405       .  A
C146        C147   1.403       .  A
C146        H151   1.083       .  S
C147        C382   1.485       .  S
C147        C148   1.403       .  A
C148        C149   1.402       .  A
C148        H152   1.083       .  S
C149        C352   1.485       .  S
C149        C150   1.405       .  A
C150        H153   1.082       .  S
C154        C422   1.478       .  S
C154        C155   1.403       .  A
C154        C159   1.399       .  A
C155        C156   1.407       .  A
C155        H160   1.084       .  S
C156        C289   1.487       .  S
C156        C157   1.406       .  A
C157        C158   1.403       .  A
C157        H161   1.082       .  S
C158        C262   1.477       .  S
C158        C159   1.397       .  A
C159        H162   1.086       .  S
C163        C359   1.483       .  S
C163        C164   1.406       .  A
C163        C168   1.401       .  A
C164        C165   1.408       .  A
C164        H169   1.082       .  S
C165        C389   1.493       .  S
C165        C166   1.404       .  A
C166        C167   1.401       .  A
C166        H170   1.082       .  S
C167        C229   1.476       .  S
C167        C168   1.399       .  A
C168        H171   1.083       .  S
C172        C332   1.485       .  S
C172        C173   1.405       .  A
C172        C177   1.403       .  A
C173        C174   1.407       .  A
C173        H178   1.081       .  S
C174        C442   1.490       .  S
C174        C175   1.404       .  A
C175        C176   1.400       .  A
C175        H179   1.082       .  S
C176        C222   1.477       .  S
C176        C177   1.400       .  A
C177        H180   1.084       .  S
C181        C429   1.479       .  S
C181        C182   1.401       .  A
C181        C186   1.404       .  A
C182        C183   1.402       .  A
C182        H187   1.082       .  S
C183        C299   1.479       .  S
C183        C184   1.402       .  A
C184        C185   1.403       .  A
C184        H188   1.086       .  S
C185        C212   1.481       .  S
C185        C186   1.403       .  A
C186        H189   1.084       .  S
C190        C409   1.488       .  S
C190        C191   1.403       .  A
C190        C195   1.404       .  A
C191        C192   1.401       .  A
C191        H196   1.084       .  S
C192        C249   1.483       .  S
C192        C193   1.403       .  A
C193        C194   1.404       .  A
C193        H197   1.082       .  S
C194        C339   1.488       .  S
C194        C195   1.406       .  A
C195        H198   1.083       .  S
C199        C309   1.481       .  S
C199        C200   1.402       .  A
C199        C204   1.400       .  A
C200        C201   1.403       .  A
C200        H205   1.083       .  S
C201        C402   1.486       .  S
C201        C202   1.405       .  A
C202        C203   1.403       .  A
C202        H206   1.082       .  S
C203        C239   1.481       .  S
C203        C204   1.402       .  A
C204        H207   1.083       .  S
C208        C209   1.402       .  A
C208        C213   1.395       .  A
C208        F215   1.357       .  S
C209        C210   1.405       .  A
C210        C211   1.400       .  A
C210        F217   1.358       .  S
C211        C212   1.408       .  A
C211        F216   1.358       .  S
C212        C213   1.407       .  A
C213        F214   1.358       .  S
C218        C219   1.402       .  A
C218        C223   1.397       .  A
C218        F225   1.358       .  S
C219        C220   1.402       .  A
C220        C221   1.396       .  A
C220        F227   1.357       .  S
C221        C222   1.407       .  A
C221        F226   1.358       .  S
C222        C223   1.407       .  A
C223        F224   1.358       .  S
C228        C229   1.406       .  A
C228        C233   1.397       .  A
C228        F235   1.358       .  S
C229        C230   1.407       .  A
C230        C231   1.394       .  A
C230        F237   1.358       .  S
C231        C232   1.402       .  A
C231        F236   1.358       .  S
C232        C233   1.403       .  A
C233        F234   1.357       .  S
C238        C239   1.408       .  A
C238        C243   1.397       .  A
C238        F245   1.358       .  S
C239        C240   1.408       .  A
C240        C241   1.395       .  A
C240        F247   1.358       .  S
C241        C242   1.402       .  A
C241        F246   1.357       .  S
C242        C243   1.404       .  A
C243        F244   1.358       .  S
C248        C249   1.409       .  A
C248        C253   1.396       .  A
C248        F255   1.358       .  S
C249        C250   1.408       .  A
C250        C251   1.397       .  A
C250        F257   1.358       .  S
C251        C252   1.404       .  A
C251        F256   1.358       .  S
C252        C253   1.403       .  A
C253        F254   1.358       .  S
C258        C259   1.401       .  A
C258        C263   1.394       .  A
C258        F265   1.354       .  S
C259        C260   1.401       .  A
C260        C261   1.396       .  A
C260        F267   1.358       .  S
C261        C262   1.410       .  A
C261        F266   1.358       .  S
C262        C263   1.404       .  A
C263        F264   1.358       .  S
C268        C269   1.408       .  A
C268        C273   1.397       .  A
C268        F275   1.358       .  S
C269        C270   1.406       .  A
C270        C271   1.396       .  A
C270        F277   1.358       .  S
C271        C272   1.402       .  A
C271        F276   1.354       .  S
C272        C273   1.402       .  A
C273        F274   1.358       .  S
C278        C279   1.410       .  A
C278        C283   1.397       .  A
C278        F285   1.358       .  S
C279        C280   1.410       .  A
C280        C281   1.399       .  A
C280        F287   1.357       .  S
C281        C282   1.404       .  A
C281        F286   1.358       .  S
C282        C283   1.404       .  A
C283        F284   1.358       .  S
C288        C289   1.408       .  A
C288        C293   1.396       .  A
C288        F295   1.358       .  S
C289        C290   1.411       .  A
C290        C291   1.400       .  A
C290        F297   1.358       .  S
C291        C292   1.403       .  A
C291        F296   1.358       .  S
C292        C293   1.403       .  A
C293        F294   1.354       .  S
C298        C299   1.407       .  A
C298        C303   1.396       .  A
C298        F305   1.358       .  S
C299        C300   1.408       .  A
C300        C301   1.395       .  A
C300        F307   1.358       .  S
C301        C302   1.400       .  A
C301        F306   1.354       .  S
C302        C303   1.403       .  A
C303        F304   1.358       .  S
C308        C309   1.407       .  A
C308        C313   1.395       .  A
C308        F315   1.358       .  S
C309        C310   1.410       .  A
C310        C311   1.396       .  A
C310        F317   1.358       .  S
C311        C312   1.402       .  A
C311        F316   1.358       .  S
C312        C313   1.403       .  A
C313        F314   1.358       .  S
C318        C319   1.403       .  A
C318        C323   1.397       .  A
C318        F325   1.358       .  S
C319        C320   1.405       .  A
C320        C321   1.396       .  A
C320        F327   1.358       .  S
C321        C322   1.405       .  A
C321        F326   1.358       .  S
C322        C323   1.410       .  A
C323        F324   1.358       .  S
C328        C329   1.402       .  A
C328        C333   1.396       .  A
C328        F335   1.358       .  S
C329        C330   1.403       .  A
C330        C331   1.398       .  A
C330        F337   1.358       .  S
C331        C332   1.410       .  A
C331        F336   1.358       .  S
C332        C333   1.409       .  A
C333        F334   1.358       .  S
C338        C339   1.409       .  A
C338        C343   1.394       .  A
C338        F345   1.358       .  S
C339        C340   1.411       .  A
C340        C341   1.401       .  A
C340        F347   1.358       .  S
C341        C342   1.406       .  A
C341        F346   1.358       .  S
C342        C343   1.403       .  A
C343        F344   1.358       .  S
C348        C349   1.404       .  A
C348        C353   1.397       .  A
C348        F355   1.358       .  S
C349        C350   1.402       .  A
C350        C351   1.397       .  A
C350        F357   1.357       .  S
C351        C352   1.411       .  A
C351        F356   1.358       .  S
C352        C353   1.408       .  A
C353        F354   1.358       .  S
C358        C359   1.410       .  A
C358        C363   1.400       .  A
C358        F365   1.358       .  S
C359        C360   1.407       .  A
C360        C361   1.395       .  A
C360        F367   1.358       .  S
C361        C362   1.402       .  A
C361        F366   1.357       .  S
C362        C363   1.405       .  A
C363        F364   1.358       .  S
C368        C369   1.405       .  A
C368        C373   1.398       .  A
C368        F375   1.358       .  S
C369        C370   1.402       .  A
C370        C371   1.393       .  A
C370        F377   1.357       .  S
C371        C372   1.409       .  A
C371        F376   1.358       .  S
C372        C373   1.410       .  A
C373        F374   1.358       .  S
C378        C379   1.403       .  A
C378        C383   1.395       .  A
C378        F385   1.356       .  S
C379        C380   1.405       .  A
C380        C381   1.398       .  A
C380        F387   1.358       .  S
C381        C382   1.410       .  A
C381        F386   1.358       .  S
C382        C383   1.409       .  A
C383        F384   1.358       .  S
C388        C389   1.413       .  A
C388        C393   1.398       .  A
C388        F395   1.358       .  S
C389        C390   1.411       .  A
C390        C391   1.397       .  A
C390        F397   1.358       .  S
C391        C392   1.405       .  A
C391        F396   1.356       .  S
C392        C393   1.405       .  A
C393        F394   1.358       .  S
C398        C399   1.404       .  A
C398        C403   1.397       .  A
C398        F405   1.358       .  S
C399        C400   1.403       .  A
C400        C401   1.396       .  A
C400        F407   1.357       .  S
C401        C402   1.410       .  A
C401        F406   1.358       .  S
C402        C403   1.409       .  A
C403        F404   1.358       .  S
C408        C409   1.410       .  A
C408        C413   1.397       .  A
C408        F415   1.358       .  S
C409        C410   1.410       .  A
C410        C411   1.397       .  A
C410        F417   1.358       .  S
C411        C412   1.405       .  A
C411        F416   1.358       .  S
C412        C413   1.405       .  A
C413        F414   1.358       .  S
C418        C419   1.401       .  A
C418        C423   1.394       .  A
C418        F425   1.358       .  S
C419        C420   1.404       .  A
C420        C421   1.397       .  A
C420        F427   1.358       .  S
C421        C422   1.407       .  A
C421        F426   1.358       .  S
C422        C423   1.409       .  A
C423        F424   1.358       .  S
C428        C429   1.408       .  A
C428        C433   1.397       .  A
C428        F435   1.358       .  S
C429        C430   1.407       .  A
C430        C431   1.396       .  A
C430        F437   1.358       .  S
C431        C432   1.402       .  A
C431        F436   1.358       .  S
C432        C433   1.404       .  A
C433        F434   1.358       .  S
C438        C439   1.403       .  A
C438        C443   1.396       .  A
C438        F445   1.358       .  S
C439        C440   1.404       .  A
C440        C441   1.396       .  A
C440        F447   1.358       .  S
C441        C442   1.410       .  A
C441        F446   1.358       .  S
C442        C443   1.413       .  A
C443        F444   1.358       .  S
