geometry optimzed in LAMMPS
_audit_creation_date              2020-11-30 
_audit_creation_method            'lammps2cif' 
_symmetry_space_group_name_H-M    'P1' 
_symmetry_Int_Tables_number       1 
_symmetry_cell_setting            triclinic 
loop_ 
_symmetry_equiv_pos_as_xyz 
  x,y,z 
_cell_length_a                    28.69117677454245 
_cell_length_b                    28.79167108609313 
_cell_length_c                    26.293855282201562 
_cell_angle_alpha                 89.99871220752865 
_cell_angle_beta                  90.00115597528007 
_cell_angle_gamma                 120.58951243514869 
loop_ 
_atom_site_label 
_atom_site_type_symbol 
_atom_site_fract_x 
_atom_site_fract_y 
_atom_site_fract_z 
_atom_site_charge 
C1          C  0.47475890  0.03033949  0.33335313     0.03180
C2          C  0.44345933  0.47383792  0.33333489    -0.12970
C3          C  0.46890260  0.44295660  0.99999824     0.00680
C4          C  0.02550515  0.46879951  0.99999562    -0.11490
C5          C  0.05686395  0.02522230  0.99999935     0.03170
C6          C  0.03141195  0.05605022  0.33333854    -0.10910
H7          H  0.39964751  0.45390416  0.33333948     0.08770
H8          H  0.04510742  0.44504674  0.99999203     0.06300
H9          H  0.05566003  0.09973359  0.33334569     0.06150
C10         C  0.43641026  0.38378409  0.99999800     0.03180
C11         C  0.42179870  0.35556533  0.28699734    -0.12970
C12         C  0.39198181  0.29906115  0.28710324     0.00680
C13         C  0.37667650  0.27103459  0.99999879    -0.11490
C14         C  0.39188161  0.29895827  0.04618510     0.03180
C15         C  0.42181981  0.35545010  0.04629685    -0.10910
H16         H  0.43408859  0.37732585  0.25125824     0.08770
H17         H  0.35419665  0.22724960  0.99999908     0.06300
H18         H  0.43413290  0.37720719  0.08203677     0.06150
C19         C  0.44841993  0.06269725  0.33335655     0.03180
C20         C  0.43571346  0.07806484  0.28706711    -0.12970
C21         C  0.41170956  0.10996110  0.28714917     0.00680
C22         C  0.40047704  0.12633401  0.33334284    -0.11490
C23         C  0.41179794  0.10980253  0.04621625     0.03180
C24         C  0.43578357  0.07788110  0.04630046    -0.10910
H25         H  0.44424661  0.06509684  0.25133537     0.08770
H26         H  0.38084485  0.15009254  0.33333425     0.06300
H27         H  0.44430741  0.06490553  0.08203345     0.06150
O28         O  0.24336979  0.15060164  0.22148401    -0.85290
O29         O  0.33173431  0.24814876  0.22190780    -0.82340
C30         C  0.37847227  0.26767647  0.24002098     0.98170
O31         O  0.41250840  0.25738989  0.22148128    -0.82370
O32         O  0.42154647  0.16997958  0.22197174    -0.85020
C33         C  0.39387532  0.12335884  0.24010029     1.02690
O34         O  0.34907497  0.08913542  0.22152196    -0.77780
O35         O  0.25162536  0.07891986  0.22196868    -0.77970
C36         C  0.23251973  0.10608677  0.24006672     1.02650
O37         O  0.24334256  0.15058124  0.11189123    -0.85290
O38         O  0.33172446  0.24818048  0.11147149    -0.82350
C39         C  0.37840500  0.26759408  0.09324988     0.98190
O40         O  0.41242422  0.25722817  0.11167618    -0.82380
O41         O  0.42157635  0.16990295  0.11132938    -0.84990
C42         C  0.39395076  0.12324720  0.09326277     1.02660
O43         O  0.34915140  0.08905058  0.11186545    -0.77810
O44         O  0.25176815  0.07898976  0.11124666    -0.77950
C45         C  0.23259224  0.10612425  0.09322891     1.02620
Cr46       Cr  0.29241520  0.19605595  0.16667997     1.93740
Cr47       Cr  0.40877224  0.20872688  0.16661862     1.93210
Cr48       Cr  0.30379195  0.09223319  0.16664947     1.39100
O49         O  0.33499912  0.16567165  0.16664704    -1.23040
C50         C  0.11617045  0.05188597  0.99999938     0.03180
C51         C  0.14452560  0.06449609  0.04628597    -0.12970
C52         C  0.20094026  0.08813464  0.04620400     0.00680
C53         C  0.22876504  0.09910695  0.00000036    -0.11490
C54         C  0.20084519  0.08808045  0.28709924     0.03180
C55         C  0.14443649  0.06455460  0.28702101    -0.10910
H56         H  0.12283950  0.05607550  0.08201848     0.08770
H57         H  0.27258133  0.11851801  0.00000068     0.06300
H58         H  0.12275541  0.05616292  0.25128784     0.06150
C59         C  0.47475881  0.03033942  0.66665934     0.03180
C60         C  0.44345933  0.47383784  0.66667204    -0.12970
C61         C  0.46877626  0.44310401  0.33330727     0.00680
C62         C  0.02538287  0.46895305  0.33330059    -0.11490
C63         C  0.05676094  0.02537846  0.33331226     0.03170
C64         C  0.03141182  0.05605021  0.66667085    -0.10910
H65         H  0.39964751  0.45390400  0.66667015     0.08770
H66         H  0.04497951  0.44519595  0.33328749     0.06300
H67         H  0.05565980  0.09973358  0.66666806     0.06150
C68         C  0.43629558  0.38391050  0.33330011     0.03180
C69         C  0.42172868  0.35556777  0.62039403    -0.12970
C70         C  0.39190169  0.29906593  0.62049783     0.00680
C71         C  0.37679375  0.27114147  0.33330213    -0.11490
C72         C  0.39189913  0.29906521  0.37949947     0.03180
C73         C  0.42172533  0.35556704  0.37960231    -0.10910
H74         H  0.43398067  0.37732940  0.58465385     0.08770
H75         H  0.35437630  0.22735714  0.33330482     0.06300
H76         H  0.43397491  0.37732823  0.41534227     0.06150
C77         C  0.44841974  0.06269709  0.66665607     0.03180
C78         C  0.43570494  0.07806947  0.62036963    -0.12970
C79         C  0.41170062  0.10996950  0.62046236     0.00680
C80         C  0.40047733  0.12633429  0.66666582    -0.11490
C81         C  0.41170086  0.10996899  0.37954731     0.03180
C82         C  0.43570506  0.07806872  0.37964218    -0.10910
H83         H  0.44423351  0.06510478  0.58463430     0.08770
H84         H  0.38084538  0.15009304  0.66667285     0.06300
H85         H  0.44423403  0.06510386  0.41537824     0.06150
O86         O  0.24331116  0.15063860  0.55481565    -0.85290
O87         O  0.33168478  0.24822655  0.55523414    -0.82340
C88         C  0.37839563  0.26769690  0.57340847     0.98170
O89         O  0.41242543  0.25738286  0.55491131    -0.82370
O90         O  0.42151024  0.17002123  0.55531803    -0.85020
C91         C  0.39385799  0.12338743  0.57342132     1.02690
O92         O  0.34906006  0.08917303  0.55483434    -0.77780
O93         O  0.25163718  0.07899412  0.55536204    -0.77970
C94         C  0.23250795  0.10614756  0.57343669     1.02650
O95         O  0.24330039  0.15063061  0.44519337    -0.85290
O96         O  0.33167717  0.24821676  0.44475658    -0.82350
C97         C  0.37839168  0.26769580  0.42658989     0.98190
O98         O  0.41242527  0.25739080  0.44509613    -0.82380
O99         O  0.42150653  0.17002729  0.44467993    -0.84990
C100        C  0.39386032  0.12338881  0.42658693     1.02660
O101        O  0.34906879  0.08917088  0.44518219    -0.77810
O102        O  0.25164897  0.07899943  0.44463156    -0.77950
C103        C  0.23250862  0.10614688  0.42656418     1.02620
Cr104      Cr  0.29236207  0.19611142  0.50000005     1.93740
Cr105      Cr  0.40872228  0.20880469  0.50000134     1.93210
Cr106      Cr  0.30374161  0.09229595  0.50000238     1.39100
O107        O  0.33494764  0.16573667  0.50000134    -1.23040
C108        C  0.11607927  0.05201797  0.33330917     0.03180
C109        C  0.14443701  0.06460088  0.37959801    -0.12970
C110        C  0.20084488  0.08813727  0.37952623     0.00680
C111        C  0.22865968  0.09902646  0.33331549    -0.11490
C112        C  0.20084436  0.08813557  0.62047399     0.03180
C113        C  0.14443629  0.06459767  0.62040109    -0.10910
H114        H  0.12275568  0.05623290  0.41532852     0.08770
H115        H  0.27247014  0.11837522  0.33331841     0.06300
H116        H  0.12275451  0.05622781  0.58467012     0.06150
C117        C  0.47485738  0.03017118  0.00000629     0.03180
C118        C  0.44357452  0.47367564  0.00000350    -0.12970
C119        C  0.46877639  0.44310403  0.66668917     0.00680
C120        C  0.02538301  0.46895316  0.66669064    -0.11490
C121        C  0.05676095  0.02537857  0.66668639     0.03170
C122        C  0.03150804  0.05588654  0.00000474    -0.10910
H123        H  0.39976209  0.45373207  0.00000486     0.08770
H124        H  0.04497976  0.44519617  0.66669660     0.06300
H125        H  0.05575050  0.09956984  0.00000692     0.06150
C126        C  0.43629580  0.38391051  0.66669587     0.03180
C127        C  0.42182295  0.35545084  0.95369951    -0.12970
C128        C  0.39188427  0.29895900  0.95381218     0.00680
C129        C  0.37679348  0.27114148  0.66669549    -0.11490
C130        C  0.39197911  0.29906043  0.71289407     0.03180
C131        C  0.42179570  0.35556460  0.71299901    -0.10910
H132        H  0.43413845  0.37720839  0.91795937     0.08770
H133        H  0.35437581  0.22735715  0.66669340     0.06300
H134        H  0.43408322  0.37732466  0.74873790     0.06150
C135        C  0.44850072  0.06251576  0.00000634     0.03180
C136        C  0.43578366  0.07788199  0.95371139    -0.12970
C137        C  0.41179761  0.10980290  0.95379341     0.00680
C138        C  0.40060073  0.12618875  0.00000432    -0.11490
C139        C  0.41171000  0.10996081  0.71286050     0.03180
C140        C  0.43571329  0.07806385  0.71294469    -0.10910
H141        H  0.44430712  0.06490658  0.91797915     0.08770
H142        H  0.38099838  0.14997437  0.00000352     0.06300
H143        H  0.44424678  0.06509563  0.74867717     0.06150
O144        O  0.24335645  0.15059186  0.88812047    -0.85290
O145        O  0.33173423  0.24819356  0.88851658    -0.82340
C146        C  0.37840965  0.26759526  0.90674847     0.98170
O147        O  0.41242383  0.25721716  0.88833389    -0.82370
O148        O  0.42158119  0.16989486  0.88866604    -0.85020
C149        C  0.39394782  0.12324511  0.90674548     1.02690
O150        O  0.34914015  0.08905317  0.88815366    -0.77780
O151        O  0.25175314  0.07898326  0.88874436    -0.77970
C152        C  0.23259153  0.10612555  0.90677200     1.02650
O153        O  0.24335585  0.15059100  0.77852772    -0.85290
O154        O  0.33172454  0.24813564  0.77808028    -0.82350
C155        C  0.37846759  0.26767529  0.75997739     0.98190
O156        O  0.41250872  0.25740092  0.77852881    -0.82380
O157        O  0.42154169  0.16998776  0.77802369    -0.84990
C158        C  0.39387835  0.12336099  0.75990797     1.02660
O159        O  0.34908632  0.08913286  0.77849713    -0.77810
O160        O  0.25164041  0.07892632  0.77802231    -0.77950
C161        C  0.23252042  0.10608542  0.75993419     1.02620
Cr162      Cr  0.29241519  0.19605594  0.83332014     1.93740
Cr163      Cr  0.40877223  0.20872690  0.83338410     1.93210
Cr164      Cr  0.30379197  0.09223318  0.83335526     1.39100
O165        O  0.33499912  0.16567164  0.83335570    -1.23040
C166        C  0.11607929  0.05201819  0.66668957     0.03180
C167        C  0.14443725  0.06455817  0.71297809    -0.12970
C168        C  0.20084571  0.08808203  0.71290099     0.00680
C169        C  0.22865965  0.09902620  0.66668526    -0.11490
C170        C  0.20093972  0.08813300  0.95379621     0.03180
C171        C  0.14452484  0.06449264  0.95371315    -0.10910
H172        H  0.12275663  0.05616841  0.74871081     0.08770
H173        H  0.27247009  0.11837472  0.66668299     0.06300
H174        H  0.12283829  0.05607016  0.91798019     0.06150
C175        C  0.47475890  0.53033950  0.33335312     0.03180
C176        C  0.44345932  0.97383791  0.33333489    -0.12970
C177        C  0.46890261  0.94295663  0.99999824     0.00680
C178        C  0.02550509  0.96879953  0.99999562    -0.11490
C179        C  0.05686400  0.52522227  0.99999935     0.03170
C180        C  0.03141192  0.55605022  0.33333852    -0.10910
H181        H  0.39964750  0.95390416  0.33333948     0.08770
H182        H  0.04510737  0.94504676  0.99999203     0.06300
H183        H  0.05566000  0.59973358  0.33334566     0.06150
C184        C  0.43641026  0.88378411  0.99999800     0.03180
C185        C  0.42179871  0.85556531  0.28699734    -0.12970
C186        C  0.39198179  0.79906113  0.28710324     0.00680
C187        C  0.37667662  0.77103460  0.99999879    -0.11490
C188        C  0.39188166  0.79895829  0.04618510     0.03180
C189        C  0.42181980  0.85545012  0.04629685    -0.10910
H190        H  0.43408860  0.87732583  0.25125824     0.08770
H191        H  0.35419685  0.72724962  0.99999908     0.06300
H192        H  0.43413288  0.87720721  0.08203677     0.06150
C193        C  0.44841991  0.56269724  0.33335655     0.03180
C194        C  0.43571344  0.57806483  0.28706712    -0.12970
C195        C  0.41170958  0.60996113  0.28714917     0.00680
C196        C  0.40047705  0.62633403  0.33334285    -0.11490
C197        C  0.41179791  0.60980247  0.04621625     0.03180
C198        C  0.43578363  0.57788113  0.04630046    -0.10910
H199        H  0.44424659  0.56509684  0.25133537     0.08770
H200        H  0.38084489  0.65009257  0.33333427     0.06300
H201        H  0.44430749  0.56490557  0.08203345     0.06150
O202        O  0.24336918  0.65060113  0.22148348    -0.85290
O203        O  0.33173390  0.74814811  0.22190831    -0.82340
C204        C  0.37847213  0.76767644  0.24002098     0.98170
O205        O  0.41250850  0.75739048  0.22148077    -0.82370
O206        O  0.42154625  0.66997997  0.22197224    -0.85020
C207        C  0.39387544  0.62335897  0.24010030     1.02690
O208        O  0.34907546  0.58913533  0.22152146    -0.77780
O209        O  0.25162598  0.57892008  0.22196918    -0.77970
C210        C  0.23251973  0.60608665  0.24006671     1.02650
O211        O  0.24334318  0.65058176  0.11189070    -0.85290
O212        O  0.33172489  0.74818113  0.11147200    -0.82350
C213        C  0.37840516  0.76759410  0.09324987     0.98190
O214        O  0.41242413  0.75722757  0.11167566    -0.82380
O215        O  0.42157657  0.66990254  0.11132987    -0.84990
C216        C  0.39395063  0.62324705  0.09326277     1.02660
O217        O  0.34915090  0.58905066  0.11186495    -0.77810
O218        O  0.25176752  0.57898954  0.11124717    -0.77950
C219        C  0.23259225  0.60612438  0.09322890     1.02620
Cr220      Cr  0.29241521  0.69605596  0.16667996     1.93740
Cr221      Cr  0.40877224  0.70872687  0.16661861     1.93210
Cr222      Cr  0.30379195  0.59223319  0.16664947     1.39100
O223        O  0.33499913  0.66567165  0.16664702    -1.23040
C224        C  0.11617048  0.55188592  0.99999938     0.03180
C225        C  0.14452562  0.56449604  0.04628597    -0.12970
C226        C  0.20094028  0.58813467  0.04620400     0.00680
C227        C  0.22876507  0.59910707  0.00000036    -0.11490
C228        C  0.20084518  0.58808044  0.28709924     0.03180
C229        C  0.14443648  0.56455462  0.28702101    -0.10910
H230        H  0.12283952  0.55607544  0.08201848     0.08770
H231        H  0.27258137  0.61851823  0.00000067     0.06300
H232        H  0.12275541  0.55616294  0.25128783     0.06150
C233        C  0.47475879  0.53033943  0.66665935     0.03180
C234        C  0.44345933  0.97383783  0.66667204    -0.12970
C235        C  0.46877624  0.94310399  0.33330727     0.00680
C236        C  0.02538290  0.96895305  0.33330058    -0.11490
C237        C  0.05676092  0.52537846  0.33331225     0.03170
C238        C  0.03141177  0.55605021  0.66667086    -0.10910
H239        H  0.39964751  0.95390400  0.66667016     0.08770
H240        H  0.04497955  0.94519596  0.33328748     0.06300
H241        H  0.05565975  0.59973358  0.66666808     0.06150
C242        C  0.43629556  0.88391049  0.33330011     0.03180
C243        C  0.42172868  0.85556775  0.62039403    -0.12970
C244        C  0.39190163  0.79906591  0.62049783     0.00680
C245        C  0.37679371  0.77114145  0.33330214    -0.11490
C246        C  0.39189911  0.79906520  0.37949947     0.03180
C247        C  0.42172530  0.85556703  0.37960231    -0.10910
H248        H  0.43398068  0.87732938  0.58465385     0.08770
H249        H  0.35437626  0.72735713  0.33330484     0.06300
H250        H  0.43397488  0.87732822  0.41534227     0.06150
C251        C  0.44841969  0.56269707  0.66665607     0.03180
C252        C  0.43570490  0.57806945  0.62036963    -0.12970
C253        C  0.41170065  0.60996954  0.62046236     0.00680
C254        C  0.40047743  0.62633440  0.66666582    -0.11490
C255        C  0.41170086  0.60996899  0.37954731     0.03180
C256        C  0.43570507  0.57806872  0.37964218    -0.10910
H257        H  0.44423346  0.56510475  0.58463430     0.08770
H258        H  0.38084555  0.65009322  0.66667285     0.06300
H259        H  0.44423403  0.56510385  0.41537824     0.06150
O260        O  0.24331076  0.65063826  0.55481533    -0.85290
O261        O  0.33168449  0.74822614  0.55523445    -0.82340
C262        C  0.37839551  0.76769687  0.57340847     0.98170
O263        O  0.41242546  0.75738323  0.55491099    -0.82370
O264        O  0.42151010  0.67002149  0.55531833    -0.85020
C265        C  0.39385808  0.62338752  0.57342132     1.02690
O266        O  0.34906037  0.58917298  0.55483403    -0.77780
O267        O  0.25163756  0.57899425  0.55536235    -0.77970
C268        C  0.23250793  0.60614746  0.57343669     1.02650
O269        O  0.24330074  0.65063089  0.44519305    -0.85290
O270        O  0.33167739  0.74821713  0.44475689    -0.82350
C271        C  0.37839174  0.76769580  0.42658989     0.98190
O272        O  0.41242518  0.75739044  0.44509581    -0.82380
O273        O  0.42150666  0.67002705  0.44468024    -0.84990
C274        C  0.39386025  0.62338873  0.42658693     1.02660
O275        O  0.34906849  0.58917094  0.44518188    -0.77810
O276        O  0.25164857  0.57899927  0.44463187    -0.77950
C277        C  0.23250859  0.60614692  0.42656418     1.02620
Cr278      Cr  0.29236204  0.69611139  0.50000005     1.93740
Cr279      Cr  0.40872226  0.70880469  0.50000134     1.93210
Cr280      Cr  0.30374161  0.59229595  0.50000238     1.39100
O281        O  0.33494762  0.66573666  0.50000133    -1.23040
C282        C  0.11607925  0.55201797  0.33330916     0.03180
C283        C  0.14443699  0.56460085  0.37959800    -0.12970
C284        C  0.20084486  0.58813725  0.37952623     0.00680
C285        C  0.22865966  0.59902642  0.33331550    -0.11490
C286        C  0.20084434  0.58813553  0.62047399     0.03180
C287        C  0.14443627  0.56459769  0.62040109    -0.10910
H288        H  0.12275565  0.55623288  0.41532851     0.08770
H289        H  0.27247012  0.61837516  0.33331843     0.06300
H290        H  0.12275450  0.55622784  0.58467013     0.06150
C291        C  0.47485742  0.53017117  0.00000629     0.03180
C292        C  0.44357450  0.97367564  0.00000351    -0.12970
C293        C  0.46877638  0.94310400  0.66668917     0.00680
C294        C  0.02538304  0.96895315  0.66669065    -0.11490
C295        C  0.05676092  0.52537859  0.66668640     0.03170
C296        C  0.03150811  0.55588653  0.00000474    -0.10910
H297        H  0.39976207  0.95373205  0.00000486     0.08770
H298        H  0.04497979  0.94519616  0.66669661     0.06300
H299        H  0.05575058  0.59956983  0.00000693     0.06150
C300        C  0.43629579  0.88391049  0.66669587     0.03180
C301        C  0.42182293  0.85545087  0.95369951    -0.12970
C302        C  0.39188432  0.79895903  0.95381218     0.00680
C303        C  0.37679337  0.77114146  0.66669548    -0.11490
C304        C  0.39197906  0.79906041  0.71289407     0.03180
C305        C  0.42179572  0.85556457  0.71299901    -0.10910
H306        H  0.43413842  0.87720842  0.91795937     0.08770
H307        H  0.35437562  0.72735713  0.66669339     0.06300
H308        H  0.43408325  0.87732464  0.74873790     0.06150
C309        C  0.44850079  0.56251580  0.00000634     0.03180
C310        C  0.43578373  0.57788202  0.95371139    -0.12970
C311        C  0.41179758  0.60980284  0.95379341     0.00680
C312        C  0.40060062  0.62618862  0.00000432    -0.11490
C313        C  0.41171004  0.60996087  0.71286050     0.03180
C314        C  0.43571324  0.57806383  0.71294469    -0.10910
H315        H  0.44430720  0.56490662  0.91797915     0.08770
H316        H  0.38099817  0.64997415  0.00000352     0.06300
H317        H  0.44424673  0.56509561  0.74867717     0.06150
O318        O  0.24335726  0.65059254  0.88812117    -0.85290
O319        O  0.33173479  0.74819441  0.88851591    -0.82340
C320        C  0.37840984  0.76759529  0.90674848     0.98170
O321        O  0.41242370  0.75721637  0.88833457    -0.82370
O322        O  0.42158147  0.66989432  0.88866539    -0.85020
C323        C  0.39394765  0.62324492  0.90674549     1.02690
O324        O  0.34913949  0.58905328  0.88815432    -0.77780
O325        O  0.25175232  0.57898296  0.88874369    -0.77970
C326        C  0.23259154  0.60612572  0.90677201     1.02650
O327        O  0.24335503  0.65059032  0.77852841    -0.85290
O328        O  0.33172398  0.74813479  0.77807961    -0.82350
C329        C  0.37846739  0.76767525  0.75997739     0.98190
O330        O  0.41250884  0.75740170  0.77852949    -0.82380
O331        O  0.42154141  0.66998830  0.77802304    -0.84990
C332        C  0.39387852  0.62336118  0.75990797     1.02660
O333        O  0.34908698  0.58913275  0.77849779    -0.77810
O334        O  0.25164124  0.57892661  0.77802164    -0.77950
C335        C  0.23252042  0.60608525  0.75993420     1.02620
Cr336      Cr  0.29241519  0.69605594  0.83332015     1.93740
Cr337      Cr  0.40877223  0.70872690  0.83338411     1.93210
Cr338      Cr  0.30379198  0.59223318  0.83335526     1.39100
O339        O  0.33499912  0.66567164  0.83335572    -1.23040
C340        C  0.11607928  0.55201823  0.66668957     0.03180
C341        C  0.14443725  0.56455822  0.71297809    -0.12970
C342        C  0.20084570  0.58808200  0.71290099     0.00680
C343        C  0.22865962  0.59902608  0.66668526    -0.11490
C344        C  0.20093974  0.58813303  0.95379621     0.03180
C345        C  0.14452486  0.56449258  0.95371315    -0.10910
H346        H  0.12275663  0.55616847  0.74871082     0.08770
H347        H  0.27247005  0.61837453  0.66668298     0.06300
H348        H  0.12283830  0.55607008  0.91798019     0.06150
C349        C  0.97475895  0.03033954  0.33335313     0.03180
C350        C  0.94345932  0.47383795  0.33333488    -0.12970
C351        C  0.96890263  0.44295661  0.99999825     0.00680
C352        C  0.52550511  0.46879949  0.99999562    -0.11490
C353        C  0.55686397  0.02522232  0.99999935     0.03170
C354        C  0.53141192  0.05605018  0.33333853    -0.10910
H355        H  0.89964750  0.45390421  0.33333948     0.08770
H356        H  0.54510737  0.44504671  0.99999203     0.06300
H357        H  0.55565999  0.09973355  0.33334568     0.06150
C358        C  0.93641030  0.38378409  0.99999800     0.03180
C359        C  0.92179864  0.35556534  0.28699735    -0.12970
C360        C  0.89198186  0.29906116  0.28710324     0.00680
C361        C  0.87667641  0.27103459  0.99999878    -0.11490
C362        C  0.89188158  0.29895826  0.04618509     0.03180
C363        C  0.92181987  0.35545009  0.04629685    -0.10910
H364        H  0.93408852  0.37732586  0.25125824     0.08770
H365        H  0.85419649  0.22724960  0.99999907     0.06300
H366        H  0.93413296  0.37720717  0.08203677     0.06150
C367        C  0.94842000  0.06269731  0.33335655     0.03180
C368        C  0.93571353  0.07806490  0.28706711    -0.12970
C369        C  0.91170951  0.10996105  0.28714917     0.00680
C370        C  0.90047686  0.12633384  0.33334285    -0.11490
C371        C  0.91179797  0.10980257  0.04621625     0.03180
C372        C  0.93578353  0.07788107  0.04630046    -0.10910
H373        H  0.94424669  0.06509691  0.25133538     0.08770
H374        H  0.88084454  0.15009225  0.33333426     0.06300
H375        H  0.94430736  0.06490550  0.08203345     0.06150
O376        O  0.74337075  0.15060244  0.22148482    -0.85290
O377        O  0.83173496  0.24814976  0.22190700    -0.82340
C378        C  0.87847249  0.26767650  0.24002098     0.98170
O379        O  0.91250825  0.25738896  0.22148209    -0.82370
O380        O  0.92154680  0.16997893  0.22197097    -0.85020
C381        C  0.89387511  0.12335861  0.24010030     1.02690
O382        O  0.84907417  0.08913555  0.22152275    -0.77780
O383        O  0.75162436  0.07891950  0.22196789    -0.77970
C384        C  0.73251971  0.10608697  0.24006673     1.02650
O385        O  0.74334161  0.15058045  0.11189204    -0.85290
O386        O  0.83172381  0.24817948  0.11147069    -0.82350
C387        C  0.87840479  0.26759405  0.09324988     0.98190
O388        O  0.91242438  0.25722910  0.11167698    -0.82380
O389        O  0.92157601  0.16990357  0.11132860    -0.84990
C390        C  0.89395095  0.12324741  0.09326278     1.02660
O391        O  0.84915218  0.08905044  0.11186625    -0.77810
O392        O  0.75176913  0.07899012  0.11124588    -0.77950
C393        C  0.73259226  0.10612405  0.09322892     1.02620
Cr394      Cr  0.79241520  0.19605596  0.16667997     1.93740
Cr395      Cr  0.90877224  0.20872687  0.16661863     1.93210
Cr396      Cr  0.80379194  0.09223319  0.16664947     1.39100
O397        O  0.83499912  0.16567165  0.16664706    -1.23040
C398        C  0.61617047  0.05188601  0.99999938     0.03180
C399        C  0.64452562  0.06449615  0.04628597    -0.12970
C400        C  0.70094027  0.08813461  0.04620400     0.00680
C401        C  0.72876504  0.09910686  0.00000036    -0.11490
C402        C  0.70084517  0.08808049  0.28709923     0.03180
C403        C  0.64443646  0.06455453  0.28702101    -0.10910
H404        H  0.62283953  0.05607556  0.08201848     0.08770
H405        H  0.77258132  0.11851785  0.00000067     0.06300
H406        H  0.62275538  0.05616283  0.25128783     0.06150
C407        C  0.97475879  0.03033938  0.66665934     0.03180
C408        C  0.94345930  0.47383779  0.66667204    -0.12970
C409        C  0.96877623  0.44310402  0.33330727     0.00680
C410        C  0.52538290  0.46895305  0.33330058    -0.11490
C411        C  0.55676091  0.02537842  0.33331226     0.03170
C412        C  0.53141183  0.05605023  0.66667085    -0.10910
H413        H  0.89964747  0.45390394  0.66667015     0.08770
H414        H  0.54497955  0.44519597  0.33328749     0.06300
H415        H  0.55565983  0.09973360  0.66666806     0.06150
C416        C  0.93629551  0.38391052  0.33330011     0.03180
C417        C  0.92172870  0.35556773  0.62039403    -0.12970
C418        C  0.89190163  0.29906590  0.62049784     0.00680
C419        C  0.87679391  0.27114147  0.33330213    -0.11490
C420        C  0.89189918  0.29906522  0.37949947     0.03180
C421        C  0.92172526  0.35556705  0.37960232    -0.10910
H422        H  0.93398069  0.37732936  0.58465384     0.08770
H423        H  0.85437659  0.22735715  0.33330482     0.06300
H424        H  0.93397483  0.37732824  0.41534228     0.06150
C425        C  0.94841969  0.06269703  0.66665606     0.03180
C426        C  0.93570488  0.07806941  0.62036963    -0.12970
C427        C  0.91170065  0.10996952  0.62046236     0.00680
C428        C  0.90047742  0.12633436  0.66666583    -0.11490
C429        C  0.91170080  0.10996893  0.37954731     0.03180
C430        C  0.93570513  0.07806877  0.37964218    -0.10910
H431        H  0.94423345  0.06510473  0.58463430     0.08770
H432        H  0.88084553  0.15009317  0.66667287     0.06300
H433        H  0.94423412  0.06510393  0.41537824     0.06150
O434        O  0.74331017  0.15063778  0.55481481    -0.85290
O435        O  0.83168410  0.24822551  0.55523496    -0.82340
C436        C  0.87839539  0.26769685  0.57340847     0.98170
O437        O  0.91242558  0.25738381  0.55491048    -0.82370
O438        O  0.92150988  0.17002186  0.55531884    -0.85020
C439        C  0.89385819  0.12338763  0.57342132     1.02690
O440        O  0.84906085  0.08917287  0.55483352    -0.77780
O441        O  0.75163819  0.07899449  0.55536285    -0.77970
C442        C  0.73250796  0.10614736  0.57343668     1.02650
O443        O  0.74330137  0.15063143  0.44519252    -0.85290
O444        O  0.83167784  0.24821779  0.44475740    -0.82350
C445        C  0.87839191  0.26769582  0.42658988     0.98190
O446        O  0.91242511  0.25738983  0.44509530    -0.82380
O447        O  0.92150687  0.17002662  0.44468074    -0.84990
C448        C  0.89386010  0.12338857  0.42658692     1.02660
O449        O  0.84906796  0.08917101  0.44518136    -0.77810
O450        O  0.75164793  0.07899906  0.44463238    -0.77950
C451        C  0.73250859  0.10614707  0.42656417     1.02620
Cr452      Cr  0.79236207  0.19611141  0.50000004     1.93740
Cr453      Cr  0.90872227  0.20880467  0.50000134     1.93210
Cr454      Cr  0.80374159  0.09229594  0.50000238     1.39100
O455        O  0.83494763  0.16573666  0.50000132    -1.23040
C456        C  0.61607924  0.05201790  0.33330917     0.03180
C457        C  0.64443698  0.06460080  0.37959801    -0.12970
C458        C  0.70084486  0.08813730  0.37952622     0.00680
C459        C  0.72865967  0.09902660  0.33331549    -0.11490
C460        C  0.70084436  0.08813554  0.62047399     0.03180
C461        C  0.64443630  0.06459770  0.62040109    -0.10910
H462        H  0.62275564  0.05623281  0.41532852     0.08770
H463        H  0.77247014  0.11837548  0.33331841     0.06300
H464        H  0.62275452  0.05622785  0.58467012     0.06150
C465        C  0.97485736  0.03017117  0.00000629     0.03180
C466        C  0.94357455  0.47367564  0.00000351    -0.12970
C467        C  0.96877637  0.44310399  0.66668916     0.00680
C468        C  0.52538303  0.46895320  0.66669065    -0.11490
C469        C  0.55676095  0.02537858  0.66668639     0.03170
C470        C  0.53150805  0.05588655  0.00000474    -0.10910
H471        H  0.89976211  0.45373207  0.00000487     0.08770
H472        H  0.54497978  0.44519621  0.66669660     0.06300
H473        H  0.55575050  0.09956985  0.00000693     0.06150
C474        C  0.93629580  0.38391048  0.66669587     0.03180
C475        C  0.92182298  0.35545085  0.95369951    -0.12970
C476        C  0.89188425  0.29895901  0.95381218     0.00680
C477        C  0.87679338  0.27114145  0.66669549    -0.11490
C478        C  0.89197907  0.29906041  0.71289408     0.03180
C479        C  0.92179569  0.35556457  0.71299901    -0.10910
H480        H  0.93413849  0.37720839  0.91795937     0.08770
H481        H  0.85437565  0.22735713  0.66669341     0.06300
H482        H  0.93408322  0.37732464  0.74873789     0.06150
C483        C  0.94850070  0.06251575  0.00000634     0.03180
C484        C  0.93578365  0.07788198  0.95371139    -0.12970
C485        C  0.91179764  0.10980292  0.95379341     0.00680
C486        C  0.90060082  0.12618883  0.00000431    -0.11490
C487        C  0.91171002  0.10996082  0.71286050     0.03180
C488        C  0.93571327  0.07806382  0.71294469    -0.10910
H489        H  0.94430709  0.06490656  0.91797916     0.08770
H490        H  0.88099853  0.14997452  0.00000351     0.06300
H491        H  0.94424675  0.06509559  0.74867716     0.06150
O492        O  0.74335637  0.15059178  0.88812042    -0.85290
O493        O  0.83173417  0.24819347  0.88851664    -0.82340
C494        C  0.87840961  0.26759526  0.90674847     0.98170
O495        O  0.91242382  0.25721723  0.88833383    -0.82370
O496        O  0.92158117  0.16989492  0.88866609    -0.85020
C497        C  0.89394785  0.12324514  0.90674548     1.02690
O498        O  0.84914022  0.08905317  0.88815360    -0.77780
O499        O  0.75175322  0.07898327  0.88874441    -0.77970
C500        C  0.73259153  0.10612551  0.90677199     1.02650
O501        O  0.74335589  0.15059102  0.77852767    -0.85290
O502        O  0.83172455  0.24813569  0.77808034    -0.82350
C503        C  0.87846757  0.26767527  0.75997739     0.98190
O504        O  0.91250868  0.25740085  0.77852876    -0.82380
O505        O  0.92154172  0.16998773  0.77802374    -0.84990
C506        C  0.89387835  0.12336098  0.75990797     1.02660
O507        O  0.84908628  0.08913287  0.77849707    -0.77810
O508        O  0.75164035  0.07892628  0.77802236    -0.77950
C509        C  0.73252042  0.10608541  0.75993419     1.02620
Cr510      Cr  0.79241518  0.19605592  0.83332014     1.93740
Cr511      Cr  0.90877223  0.20872690  0.83338410     1.93210
Cr512      Cr  0.80379199  0.09223318  0.83335526     1.39100
O513        O  0.83499912  0.16567164  0.83335570    -1.23040
C514        C  0.61607929  0.05201820  0.66668957     0.03180
C515        C  0.64443725  0.06455817  0.71297809    -0.12970
C516        C  0.70084570  0.08808200  0.71290099     0.00680
C517        C  0.72865964  0.09902611  0.66668527    -0.11490
C518        C  0.70093972  0.08813297  0.95379621     0.03180
C519        C  0.64452485  0.06449266  0.95371315    -0.10910
H520        H  0.62275662  0.05616841  0.74871081     0.08770
H521        H  0.77247007  0.11837458  0.66668300     0.06300
H522        H  0.62283830  0.05607018  0.91798019     0.06150
C523        C  0.97475891  0.53033953  0.33335311     0.03180
C524        C  0.94345935  0.97383796  0.33333488    -0.12970
C525        C  0.96890257  0.94295663  0.99999825     0.00680
C526        C  0.52550513  0.96879955  0.99999562    -0.11490
C527        C  0.55686397  0.52522224  0.99999935     0.03170
C528        C  0.53141191  0.55605021  0.33333852    -0.10910
H529        H  0.89964753  0.95390421  0.33333948     0.08770
H530        H  0.54510741  0.94504679  0.99999203     0.06300
H531        H  0.55565998  0.59973357  0.33334567     0.06150
C532        C  0.93641020  0.88378411  0.99999800     0.03180
C533        C  0.92179873  0.85556532  0.28699734    -0.12970
C534        C  0.89198182  0.79906115  0.28710324     0.00680
C535        C  0.87667675  0.77103460  0.99999878    -0.11490
C536        C  0.89188170  0.79895829  0.04618509     0.03180
C537        C  0.92181976  0.85545012  0.04629685    -0.10910
H538        H  0.93408861  0.87732584  0.25125824     0.08770
H539        H  0.85419707  0.72724962  0.99999906     0.06300
H540        H  0.93413283  0.87720721  0.08203677     0.06150
C541        C  0.94841995  0.56269728  0.33335654     0.03180
C542        C  0.93571344  0.57806485  0.28706711    -0.12970
C543        C  0.91170956  0.60996112  0.28714917     0.00680
C544        C  0.90047700  0.62633398  0.33334286    -0.11490
C545        C  0.91179788  0.60980243  0.04621625     0.03180
C546        C  0.93578366  0.57788114  0.04630046    -0.10910
H547        H  0.94424661  0.56509686  0.25133537     0.08770
H548        H  0.88084478  0.65009248  0.33333428     0.06300
H549        H  0.94430752  0.56490560  0.08203345     0.06150
O550        O  0.74336898  0.65060097  0.22148329    -0.85290
O551        O  0.83173378  0.74814790  0.22190850    -0.82340
C552        C  0.87847211  0.76767645  0.24002098     0.98170
O553        O  0.91250856  0.75739070  0.22148058    -0.82370
O554        O  0.92154617  0.66998011  0.22197242    -0.85020
C555        C  0.89387547  0.62335901  0.24010030     1.02690
O556        O  0.84907563  0.58913529  0.22152127    -0.77780
O557        O  0.75162621  0.57892018  0.22196937    -0.77970
C558        C  0.73251974  0.60608663  0.24006671     1.02650
O559        O  0.74334342  0.65058198  0.11189051    -0.85290
O560        O  0.83172508  0.74818138  0.11147219    -0.82350
C561        C  0.87840523  0.76759411  0.09324987     0.98190
O562        O  0.91242411  0.75722734  0.11167547    -0.82380
O563        O  0.92157664  0.66990236  0.11133005    -0.84990
C564        C  0.89395056  0.62324697  0.09326277     1.02660
O565        O  0.84915069  0.58905068  0.11186476    -0.77810
O566        O  0.75176727  0.57898947  0.11124735    -0.77950
C567        C  0.73259225  0.60612445  0.09322890     1.02620
Cr568      Cr  0.79241523  0.69605598  0.16667996     1.93740
Cr569      Cr  0.90877225  0.70872686  0.16661861     1.93210
Cr570      Cr  0.80379193  0.59223319  0.16664947     1.39100
O571        O  0.83499913  0.66567166  0.16664702    -1.23040
C572        C  0.61617046  0.55188587  0.99999938     0.03180
C573        C  0.64452561  0.56449601  0.04628597    -0.12970
C574        C  0.70094028  0.58813471  0.04620400     0.00680
C575        C  0.72876507  0.59910719  0.00000036    -0.11490
C576        C  0.70084519  0.58808046  0.28709924     0.03180
C577        C  0.64443649  0.56455464  0.28702101    -0.10910
H578        H  0.62283951  0.55607540  0.08201848     0.08770
H579        H  0.77258138  0.61851843  0.00000066     0.06300
H580        H  0.62275542  0.55616295  0.25128783     0.06150
C581        C  0.97475874  0.53033937  0.66665935     0.03180
C582        C  0.94345934  0.97383779  0.66667203    -0.12970
C583        C  0.96877627  0.94310402  0.33330726     0.00680
C584        C  0.52538287  0.96895302  0.33330059    -0.11490
C585        C  0.55676092  0.52537846  0.33331225     0.03170
C586        C  0.53141181  0.55605026  0.66667086    -0.10910
H587        H  0.89964751  0.95390394  0.66667015     0.08770
H588        H  0.54497952  0.94519593  0.33328749     0.06300
H589        H  0.55565979  0.59973363  0.66666807     0.06150
C590        C  0.93629557  0.88391052  0.33330010     0.03180
C591        C  0.92172874  0.85556773  0.62039404    -0.12970
C592        C  0.89190158  0.79906589  0.62049783     0.00680
C593        C  0.87679379  0.77114147  0.33330214    -0.11490
C594        C  0.89189915  0.79906523  0.37949947     0.03180
C595        C  0.92172529  0.85556706  0.37960231    -0.10910
H596        H  0.93398075  0.87732936  0.58465385     0.08770
H597        H  0.85437637  0.72735715  0.33330485     0.06300
H598        H  0.93397487  0.87732825  0.41534227     0.06150
C599        C  0.94841961  0.56269699  0.66665607     0.03180
C600        C  0.93570483  0.57806939  0.62036963    -0.12970
C601        C  0.91170071  0.60996959  0.62046235     0.00680
C602        C  0.90047761  0.62633456  0.66666581    -0.11490
C603        C  0.91170084  0.60996897  0.37954731     0.03180
C604        C  0.93570511  0.57806877  0.37964218    -0.10910
H605        H  0.94423338  0.56510467  0.58463430     0.08770
H606        H  0.88084587  0.65009351  0.66667284     0.06300
H607        H  0.94423408  0.56510389  0.41537823     0.06150
O608        O  0.74330991  0.65063754  0.55481460    -0.85290
O609        O  0.83168390  0.74822524  0.55523516    -0.82340
C610        C  0.87839531  0.76769684  0.57340847     0.98170
O611        O  0.91242560  0.75738407  0.55491027    -0.82370
O612        O  0.92150981  0.67002207  0.55531903    -0.85020
C613        C  0.89385827  0.62338773  0.57342131     1.02690
O614        O  0.84906109  0.58917287  0.55483331    -0.77780
O615        O  0.75163847  0.57899457  0.55536306    -0.77970
C616        C  0.73250796  0.60614728  0.57343668     1.02650
O617        O  0.74330160  0.65063160  0.44519232    -0.85290
O618        O  0.83167798  0.74821803  0.44475760    -0.82350
C619        C  0.87839194  0.76769584  0.42658989     0.98190
O620        O  0.91242505  0.75738962  0.44509510    -0.82380
O621        O  0.92150698  0.67002650  0.44468094    -0.84990
C622        C  0.89386009  0.62338855  0.42658692     1.02660
O623        O  0.84906780  0.58917107  0.44518116    -0.77810
O624        O  0.75164770  0.57899896  0.44463258    -0.77950
C625        C  0.73250859  0.60614709  0.42656417     1.02620
Cr626      Cr  0.79236205  0.69611139  0.50000004     1.93740
Cr627      Cr  0.90872227  0.70880470  0.50000134     1.93210
Cr628      Cr  0.80374162  0.59229595  0.50000238     1.39100
O629        O  0.83494763  0.66573666  0.50000132    -1.23040
C630        C  0.61607926  0.55201797  0.33330916     0.03180
C631        C  0.64443698  0.56460082  0.37959800    -0.12970
C632        C  0.70084486  0.58813727  0.37952623     0.00680
C633        C  0.72865967  0.59902648  0.33331550    -0.11490
C634        C  0.70084435  0.58813549  0.62047399     0.03180
C635        C  0.64443630  0.56459776  0.62040109    -0.10910
H636        H  0.62275565  0.55623285  0.41532851     0.08770
H637        H  0.77247013  0.61837526  0.33331844     0.06300
H638        H  0.62275453  0.55622792  0.58467013     0.06150
C639        C  0.97485744  0.53017118  0.00000630     0.03180
C640        C  0.94357448  0.97367565  0.00000351    -0.12970
C641        C  0.96877641  0.94310398  0.66668917     0.00680
C642        C  0.52538302  0.96895316  0.66669064    -0.11490
C643        C  0.55676095  0.52537863  0.66668640     0.03170
C644        C  0.53150809  0.55588651  0.00000474    -0.10910
H645        H  0.89976205  0.95373206  0.00000487     0.08770
H646        H  0.54497975  0.94519615  0.66669660     0.06300
H647        H  0.55575057  0.59956982  0.00000693     0.06150
C648        C  0.93629586  0.88391047  0.66669588     0.03180
C649        C  0.92182286  0.85545088  0.95369951    -0.12970
C650        C  0.89188437  0.79895903  0.95381218     0.00680
C651        C  0.87679320  0.77114145  0.66669548    -0.11490
C652        C  0.89197900  0.79906039  0.71289407     0.03180
C653        C  0.92179580  0.85556455  0.71299901    -0.10910
H654        H  0.93413835  0.87720843  0.91795937     0.08770
H655        H  0.85437532  0.72735712  0.66669339     0.06300
H656        H  0.93408333  0.87732461  0.74873790     0.06150
C657        C  0.94850083  0.56251582  0.00000634     0.03180
C658        C  0.93578379  0.57788206  0.95371139    -0.12970
C659        C  0.91179754  0.60980278  0.95379341     0.00680
C660        C  0.90060050  0.62618850  0.00000431    -0.11490
C661        C  0.91171010  0.60996093  0.71286049     0.03180
C662        C  0.93571316  0.57806376  0.71294469    -0.10910
H663        H  0.94430726  0.56490666  0.91797916     0.08770
H664        H  0.88099796  0.64997395  0.00000351     0.06300
H665        H  0.94424663  0.56509552  0.74867717     0.06150
O666        O  0.74335841  0.65059350  0.88812215    -0.85290
O667        O  0.83173558  0.74819561  0.88851495    -0.82340
C668        C  0.87841010  0.76759532  0.90674848     0.98170
O669        O  0.91242351  0.75721524  0.88833554    -0.82370
O670        O  0.92158189  0.66989356  0.88866445    -0.85020
C671        C  0.89394742  0.62324466  0.90674549     1.02690
O672        O  0.84913855  0.58905344  0.88815528    -0.77780
O673        O  0.75175112  0.57898253  0.88874274    -0.77970
C674        C  0.73259151  0.60612595  0.90677202     1.02650
O675        O  0.74335388  0.65058935  0.77852940    -0.85290
O676        O  0.83172320  0.74813357  0.77807865    -0.82350
C677        C  0.87846713  0.76767521  0.75997739     0.98190
O678        O  0.91250902  0.75740282  0.77853047    -0.82380
O679        O  0.92154101  0.66998907  0.77802210    -0.84990
C680        C  0.89387877  0.62336144  0.75990798     1.02660
O681        O  0.84908794  0.58913258  0.77849875    -0.77810
O682        O  0.75164244  0.57892704  0.77802068    -0.77950
C683        C  0.73252045  0.60608501  0.75993421     1.02620
Cr684      Cr  0.79241520  0.69605593  0.83332016     1.93740
Cr685      Cr  0.90877223  0.70872690  0.83338412     1.93210
Cr686      Cr  0.80379198  0.59223318  0.83335526     1.39100
O687        O  0.83499912  0.66567164  0.83335574    -1.23040
C688        C  0.61607931  0.55201830  0.66668957     0.03180
C689        C  0.64443728  0.56455830  0.71297809    -0.12970
C690        C  0.70084572  0.58808196  0.71290099     0.00680
C691        C  0.72865962  0.59902593  0.66668526    -0.11490
C692        C  0.70093972  0.58813307  0.95379621     0.03180
C693        C  0.64452483  0.56449251  0.95371315    -0.10910
H694        H  0.62275666  0.55616856  0.74871082     0.08770
H695        H  0.77247005  0.61837425  0.66668298     0.06300
H696        H  0.62283827  0.55607001  0.91798019     0.06150
loop_ 
_geom_bond_atom_site_label_1 
_geom_bond_atom_site_label_2 
_geom_bond_distance 
_geom_bond_site_symmetry_2 
_ccdc_geom_bond_type 
C1           C19   1.468       .  S
C1          C176   1.402   1_545  A
C1          C354   1.402       .  A
C2          C175   1.402       .  A
C2           C61   1.402       .  A
C2            H7   1.084       .  S
C3           C10   1.468       .  S
C3          C118   1.402   1_556  A
C3          C352   1.400       .  A
C4          C351   1.400   1_455  A
C4          C179   1.400       .  A
C4            H8   1.084       .  S
C5           C50   1.468       .  S
C5          C178   1.400   1_545  A
C5          C122   1.401   1_556  A
C6          C349   1.402   1_455  A
C6           C63   1.401       .  A
C6            H9   1.084       .  S
C10          C15   1.405   1_556  A
C10         C127   1.405       .  A
C11          C12   1.401       .  A
C11          C68   1.406       .  A
C11          H16   1.084       .  S
C12          C30   1.464       .  S
C12          C71   1.398       .  A
C13          C14   1.398   1_556  A
C13         C128   1.398       .  A
C13          H17   1.085       .  S
C14          C39   1.463       .  S
C14          C15   1.400       .  A
C15          H18   1.084       .  S
C19          C20   1.405       .  A
C19          C82   1.405       .  A
C20          C21   1.400       .  A
C20          H25   1.084       .  S
C21          C33   1.464       .  S
C21          C22   1.399       .  A
C22          C81   1.399       .  A
C22          H26   1.085       .  S
C23          C42   1.464       .  S
C23          C24   1.401       .  A
C23         C138   1.399       .  A
C24         C135   1.405       .  A
C24          H27   1.084       .  S
O28         Cr46   1.974       .  S
O28          C36   1.254       .  A
O29         Cr46   1.977       .  S
O29          C30   1.255       .  A
C30          O31   1.254       .  A
O31         Cr47   1.976       .  S
O32         Cr47   1.978       .  S
O32          C33   1.255       .  A
C33          O34   1.254       .  A
O34         Cr48   1.974       .  S
O35         Cr48   1.980       .  S
O35          C36   1.255       .  A
C36          C54   1.464       .  S
O37         Cr46   1.974       .  S
O37          C45   1.254       .  A
O38         Cr46   1.977       .  S
O38          C39   1.255       .  A
C39          O40   1.254       .  A
O40         Cr47   1.975       .  S
O41         Cr47   1.979       .  S
O41          C42   1.255       .  A
C42          O43   1.254       .  A
O43         Cr48   1.974       .  S
O44         Cr48   1.979       .  S
O44          C45   1.255       .  A
C45          C52   1.464       .  S
Cr46         O49   1.829       .  S
Cr47         O49   1.829       .  S
Cr48         O49   1.829       .  S
C50          C51   1.405   1_556  A
C50         C171   1.405       .  A
C51          C52   1.401       .  A
C51          H56   1.084       .  S
C52          C53   1.399       .  A
C53         C170   1.399   1_554  A
C53          H57   1.085       .  S
C54          C55   1.401       .  A
C54         C111   1.399       .  A
C55         C108   1.405       .  A
C55          H58   1.084       .  S
C59          C77   1.468       .  S
C59         C234   1.402   1_545  A
C59         C412   1.402       .  A
C60         C233   1.402       .  A
C60         C119   1.402       .  A
C60          H65   1.084       .  S
C61          C68   1.469       .  S
C61         C410   1.401       .  A
C62         C409   1.401   1_455  A
C62         C237   1.400       .  A
C62          H66   1.084       .  S
C63         C108   1.468       .  S
C63         C236   1.400   1_545  A
C64         C407   1.402   1_455  A
C64         C121   1.401       .  A
C64          H67   1.084       .  S
C68          C73   1.406       .  A
C69         C126   1.406       .  A
C69          C70   1.401       .  A
C69          H74   1.084       .  S
C70          C88   1.464       .  S
C70         C129   1.398       .  A
C71          C72   1.398       .  A
C71          H75   1.085       .  S
C72          C97   1.464       .  S
C72          C73   1.401       .  A
C73          H76   1.084       .  S
C77          C78   1.405       .  A
C77         C140   1.405       .  A
C78          C79   1.401       .  A
C78          H83   1.084       .  S
C79          C91   1.464       .  S
C79          C80   1.399       .  A
C80         C139   1.399       .  A
C80          H84   1.085       .  S
C81         C100   1.464       .  S
C81          C82   1.401       .  A
C82          H85   1.084       .  S
O86        Cr104   1.974       .  S
O86          C94   1.254       .  A
O87        Cr104   1.978       .  S
O87          C88   1.255       .  A
C88          O89   1.254       .  A
O89        Cr105   1.975       .  S
O90        Cr105   1.978       .  S
O90          C91   1.255       .  A
C91          O92   1.254       .  A
O92        Cr106   1.974       .  S
O93        Cr106   1.979       .  S
O93          C94   1.255       .  A
C94         C112   1.464       .  S
O95        Cr104   1.974       .  S
O95         C103   1.254       .  A
O96        Cr104   1.978       .  S
O96          C97   1.255       .  A
C97          O98   1.254       .  A
O98        Cr105   1.975       .  S
O99        Cr105   1.978       .  S
O99         C100   1.255       .  A
C100        O101   1.254       .  A
O101       Cr106   1.974       .  S
O102       Cr106   1.979       .  S
O102        C103   1.255       .  A
C103        C110   1.464       .  S
Cr104       O107   1.829       .  S
Cr105       O107   1.829       .  S
Cr106       O107   1.829       .  S
C108        C109   1.405       .  A
C109        C110   1.401       .  A
C109        H114   1.084       .  S
C110        C111   1.399       .  A
C111        H115   1.085       .  S
C112        C169   1.399       .  A
C112        C113   1.401       .  A
C113        C166   1.405       .  A
C113        H116   1.084       .  S
C117        C135   1.468       .  S
C117        C292   1.402   1_545  A
C117        C470   1.402       .  A
C118        C291   1.402       .  A
C118        H123   1.084       .  S
C119        C126   1.469       .  S
C119        C468   1.401       .  A
C120        C467   1.401   1_455  A
C120        C295   1.400       .  A
C120        H124   1.084       .  S
C121        C166   1.468       .  S
C121        C294   1.400   1_545  A
C122        C465   1.402   1_455  A
C122        H125   1.084       .  S
C126        C131   1.406       .  A
C127        C128   1.400       .  A
C127        H132   1.084       .  S
C128        C146   1.463       .  S
C129        C130   1.398       .  A
C129        H133   1.085       .  S
C130        C155   1.464       .  S
C130        C131   1.401       .  A
C131        H134   1.084       .  S
C135        C136   1.405   1_554  A
C136        C137   1.401       .  A
C136        H141   1.084       .  S
C137        C149   1.464       .  S
C137        C138   1.399   1_556  A
C138        H142   1.085       .  S
C139        C158   1.464       .  S
C139        C140   1.400       .  A
C140        H143   1.084       .  S
O144       Cr162   1.974       .  S
O144        C152   1.254       .  A
O145       Cr162   1.977       .  S
O145        C146   1.255       .  A
C146        O147   1.254       .  A
O147       Cr163   1.975       .  S
O148       Cr163   1.979       .  S
O148        C149   1.255       .  A
C149        O150   1.254       .  A
O150       Cr164   1.974       .  S
O151       Cr164   1.979       .  S
O151        C152   1.255       .  A
C152        C170   1.464       .  S
O153       Cr162   1.974       .  S
O153        C161   1.254       .  A
O154       Cr162   1.977       .  S
O154        C155   1.255       .  A
C155        O156   1.254       .  A
O156       Cr163   1.976       .  S
O157       Cr163   1.978       .  S
O157        C158   1.255       .  A
C158        O159   1.254       .  A
O159       Cr164   1.974       .  S
O160       Cr164   1.980       .  S
O160        C161   1.255       .  A
C161        C168   1.464       .  S
Cr162       O165   1.829       .  S
Cr163       O165   1.829       .  S
Cr164       O165   1.829       .  S
C166        C167   1.405       .  A
C167        C168   1.401       .  A
C167        H172   1.084       .  S
C168        C169   1.399       .  A
C169        H173   1.085       .  S
C170        C171   1.401       .  A
C171        H174   1.084       .  S
C175        C193   1.468       .  S
C175        C528   1.402       .  A
C176        C235   1.402       .  A
C176        H181   1.084       .  S
C177        C184   1.468       .  S
C177        C292   1.402   1_556  A
C177        C526   1.400       .  A
C178        C525   1.400   1_455  A
C178        H182   1.084       .  S
C179        C224   1.468       .  S
C179        C296   1.401   1_556  A
C180        C523   1.402   1_455  A
C180        C237   1.401       .  A
C180        H183   1.084       .  S
C184        C301   1.405       .  A
C184        C189   1.405   1_556  A
C185        C242   1.406       .  A
C185        C186   1.401       .  A
C185        H190   1.084       .  S
C186        C204   1.464       .  S
C186        C245   1.398       .  A
C187        C302   1.398       .  A
C187        C188   1.398   1_556  A
C187        H191   1.085       .  S
C188        C213   1.463       .  S
C188        C189   1.400       .  A
C189        H192   1.084       .  S
C193        C194   1.405       .  A
C193        C256   1.405       .  A
C194        C195   1.400       .  A
C194        H199   1.084       .  S
C195        C207   1.464       .  S
C195        C196   1.399       .  A
C196        C255   1.399       .  A
C196        H200   1.085       .  S
C197        C216   1.464       .  S
C197        C312   1.399       .  A
C197        C198   1.401       .  A
C198        C309   1.405       .  A
C198        H201   1.084       .  S
O202       Cr220   1.974       .  S
O202        C210   1.254       .  A
O203       Cr220   1.977       .  S
O203        C204   1.255       .  A
C204        O205   1.254       .  A
O205       Cr221   1.976       .  S
O206       Cr221   1.978       .  S
O206        C207   1.255       .  A
C207        O208   1.254       .  A
O208       Cr222   1.974       .  S
O209       Cr222   1.980       .  S
O209        C210   1.255       .  A
C210        C228   1.464       .  S
O211       Cr220   1.974       .  S
O211        C219   1.254       .  A
O212       Cr220   1.977       .  S
O212        C213   1.255       .  A
C213        O214   1.254       .  A
O214       Cr221   1.975       .  S
O215       Cr221   1.979       .  S
O215        C216   1.255       .  A
C216        O217   1.254       .  A
O217       Cr222   1.974       .  S
O218       Cr222   1.979       .  S
O218        C219   1.255       .  A
C219        C226   1.464       .  S
Cr220       O223   1.829       .  S
Cr221       O223   1.829       .  S
Cr222       O223   1.829       .  S
C224        C225   1.405   1_556  A
C224        C345   1.405       .  A
C225        C226   1.401       .  A
C225        H230   1.084       .  S
C226        C227   1.399       .  A
C227        C344   1.399   1_554  A
C227        H231   1.085       .  S
C228        C285   1.399       .  A
C228        C229   1.401       .  A
C229        C282   1.405       .  A
C229        H232   1.084       .  S
C233        C251   1.468       .  S
C233        C586   1.402       .  A
C234        C293   1.402       .  A
C234        H239   1.084       .  S
C235        C242   1.469       .  S
C235        C584   1.401       .  A
C236        C583   1.401   1_455  A
C236        H240   1.084       .  S
C237        C282   1.468       .  S
C238        C581   1.402   1_455  A
C238        C295   1.401       .  A
C238        H241   1.084       .  S
C242        C247   1.406       .  A
C243        C300   1.406       .  A
C243        C244   1.401       .  A
C243        H248   1.084       .  S
C244        C262   1.464       .  S
C244        C303   1.398       .  A
C245        C246   1.398       .  A
C245        H249   1.085       .  S
C246        C271   1.464       .  S
C246        C247   1.401       .  A
C247        H250   1.084       .  S
C251        C252   1.405       .  A
C251        C314   1.405       .  A
C252        C253   1.401       .  A
C252        H257   1.084       .  S
C253        C265   1.464       .  S
C253        C254   1.399       .  A
C254        C313   1.399       .  A
C254        H258   1.085       .  S
C255        C274   1.464       .  S
C255        C256   1.401       .  A
C256        H259   1.084       .  S
O260       Cr278   1.974       .  S
O260        C268   1.254       .  A
O261       Cr278   1.978       .  S
O261        C262   1.255       .  A
C262        O263   1.254       .  A
O263       Cr279   1.975       .  S
O264       Cr279   1.978       .  S
O264        C265   1.255       .  A
C265        O266   1.254       .  A
O266       Cr280   1.974       .  S
O267       Cr280   1.979       .  S
O267        C268   1.255       .  A
C268        C286   1.464       .  S
O269       Cr278   1.974       .  S
O269        C277   1.254       .  A
O270       Cr278   1.978       .  S
O270        C271   1.255       .  A
C271        O272   1.254       .  A
O272       Cr279   1.975       .  S
O273       Cr279   1.978       .  S
O273        C274   1.255       .  A
C274        O275   1.254       .  A
O275       Cr280   1.974       .  S
O276       Cr280   1.979       .  S
O276        C277   1.255       .  A
C277        C284   1.464       .  S
Cr278       O281   1.829       .  S
Cr279       O281   1.829       .  S
Cr280       O281   1.829       .  S
C282        C283   1.405       .  A
C283        C284   1.401       .  A
C283        H288   1.084       .  S
C284        C285   1.399       .  A
C285        H289   1.085       .  S
C286        C343   1.399       .  A
C286        C287   1.401       .  A
C287        C340   1.405       .  A
C287        H290   1.084       .  S
C291        C309   1.468       .  S
C291        C644   1.402       .  A
C292        H297   1.084       .  S
C293        C300   1.469       .  S
C293        C642   1.401       .  A
C294        C641   1.401   1_455  A
C294        H298   1.084       .  S
C295        C340   1.468       .  S
C296        C639   1.402   1_455  A
C296        H299   1.084       .  S
C300        C305   1.406       .  A
C301        C302   1.400       .  A
C301        H306   1.084       .  S
C302        C320   1.463       .  S
C303        C304   1.398       .  A
C303        H307   1.085       .  S
C304        C329   1.464       .  S
C304        C305   1.401       .  A
C305        H308   1.084       .  S
C309        C310   1.405   1_554  A
C310        C311   1.401       .  A
C310        H315   1.084       .  S
C311        C323   1.464       .  S
C311        C312   1.399   1_556  A
C312        H316   1.085       .  S
C313        C332   1.464       .  S
C313        C314   1.400       .  A
C314        H317   1.084       .  S
O318       Cr336   1.974       .  S
O318        C326   1.254       .  A
O319       Cr336   1.977       .  S
O319        C320   1.255       .  A
C320        O321   1.254       .  A
O321       Cr337   1.975       .  S
O322       Cr337   1.979       .  S
O322        C323   1.255       .  A
C323        O324   1.254       .  A
O324       Cr338   1.974       .  S
O325       Cr338   1.979       .  S
O325        C326   1.255       .  A
C326        C344   1.464       .  S
O327       Cr336   1.974       .  S
O327        C335   1.254       .  A
O328       Cr336   1.977       .  S
O328        C329   1.255       .  A
C329        O330   1.254       .  A
O330       Cr337   1.976       .  S
O331       Cr337   1.978       .  S
O331        C332   1.255       .  A
C332        O333   1.254       .  A
O333       Cr338   1.974       .  S
O334       Cr338   1.980       .  S
O334        C335   1.255       .  A
C335        C342   1.464       .  S
Cr336       O339   1.829       .  S
Cr337       O339   1.829       .  S
Cr338       O339   1.829       .  S
C340        C341   1.405       .  A
C341        C342   1.401       .  A
C341        H346   1.084       .  S
C342        C343   1.399       .  A
C343        H347   1.085       .  S
C344        C345   1.401       .  A
C345        H348   1.084       .  S
C349        C367   1.468       .  S
C349        C524   1.402   1_545  A
C350        C523   1.402       .  A
C350        C409   1.402       .  A
C350        H355   1.084       .  S
C351        C358   1.468       .  S
C351        C466   1.402   1_556  A
C352        C527   1.400       .  A
C352        H356   1.084       .  S
C353        C398   1.468       .  S
C353        C526   1.400   1_545  A
C353        C470   1.401   1_556  A
C354        C411   1.401       .  A
C354        H357   1.084       .  S
C358        C475   1.405       .  A
C358        C363   1.405   1_556  A
C359        C416   1.406       .  A
C359        C360   1.401       .  A
C359        H364   1.084       .  S
C360        C378   1.464       .  S
C360        C419   1.398       .  A
C361        C476   1.398       .  A
C361        C362   1.398   1_556  A
C361        H365   1.085       .  S
C362        C387   1.463       .  S
C362        C363   1.400       .  A
C363        H366   1.084       .  S
C367        C368   1.405       .  A
C367        C430   1.405       .  A
C368        C369   1.400       .  A
C368        H373   1.084       .  S
C369        C381   1.464       .  S
C369        C370   1.399       .  A
C370        C429   1.399       .  A
C370        H374   1.085       .  S
C371        C390   1.464       .  S
C371        C486   1.399       .  A
C371        C372   1.401       .  A
C372        C483   1.405       .  A
C372        H375   1.084       .  S
O376       Cr394   1.974       .  S
O376        C384   1.254       .  A
O377       Cr394   1.977       .  S
O377        C378   1.255       .  A
C378        O379   1.254       .  A
O379       Cr395   1.976       .  S
O380       Cr395   1.978       .  S
O380        C381   1.255       .  A
C381        O382   1.254       .  A
O382       Cr396   1.974       .  S
O383       Cr396   1.980       .  S
O383        C384   1.255       .  A
C384        C402   1.464       .  S
O385       Cr394   1.974       .  S
O385        C393   1.254       .  A
O386       Cr394   1.977       .  S
O386        C387   1.255       .  A
C387        O388   1.254       .  A
O388       Cr395   1.975       .  S
O389       Cr395   1.979       .  S
O389        C390   1.255       .  A
C390        O391   1.254       .  A
O391       Cr396   1.974       .  S
O392       Cr396   1.979       .  S
O392        C393   1.255       .  A
C393        C400   1.464       .  S
Cr394       O397   1.829       .  S
Cr395       O397   1.829       .  S
Cr396       O397   1.829       .  S
C398        C399   1.405   1_556  A
C398        C519   1.405       .  A
C399        C400   1.401       .  A
C399        H404   1.084       .  S
C400        C401   1.399       .  A
C401        C518   1.399   1_554  A
C401        H405   1.085       .  S
C402        C459   1.399       .  A
C402        C403   1.401       .  A
C403        C456   1.405       .  A
C403        H406   1.084       .  S
C407        C425   1.468       .  S
C407        C582   1.402   1_545  A
C408        C581   1.402       .  A
C408        C467   1.402       .  A
C408        H413   1.084       .  S
C409        C416   1.469       .  S
C410        C585   1.400       .  A
C410        H414   1.084       .  S
C411        C456   1.468       .  S
C411        C584   1.400   1_545  A
C412        C469   1.401       .  A
C412        H415   1.084       .  S
C416        C421   1.406       .  A
C417        C474   1.406       .  A
C417        C418   1.401       .  A
C417        H422   1.084       .  S
C418        C436   1.464       .  S
C418        C477   1.398       .  A
C419        C420   1.398       .  A
C419        H423   1.085       .  S
C420        C445   1.464       .  S
C420        C421   1.401       .  A
C421        H424   1.084       .  S
C425        C426   1.405       .  A
C425        C488   1.405       .  A
C426        C427   1.401       .  A
C426        H431   1.084       .  S
C427        C439   1.464       .  S
C427        C428   1.399       .  A
C428        C487   1.399       .  A
C428        H432   1.085       .  S
C429        C448   1.464       .  S
C429        C430   1.401       .  A
C430        H433   1.084       .  S
O434       Cr452   1.974       .  S
O434        C442   1.254       .  A
O435       Cr452   1.978       .  S
O435        C436   1.255       .  A
C436        O437   1.254       .  A
O437       Cr453   1.975       .  S
O438       Cr453   1.978       .  S
O438        C439   1.255       .  A
C439        O440   1.254       .  A
O440       Cr454   1.974       .  S
O441       Cr454   1.979       .  S
O441        C442   1.255       .  A
C442        C460   1.464       .  S
O443       Cr452   1.974       .  S
O443        C451   1.254       .  A
O444       Cr452   1.978       .  S
O444        C445   1.255       .  A
C445        O446   1.254       .  A
O446       Cr453   1.975       .  S
O447       Cr453   1.978       .  S
O447        C448   1.255       .  A
C448        O449   1.254       .  A
O449       Cr454   1.974       .  S
O450       Cr454   1.979       .  S
O450        C451   1.255       .  A
C451        C458   1.464       .  S
Cr452       O455   1.829       .  S
Cr453       O455   1.829       .  S
Cr454       O455   1.829       .  S
C456        C457   1.405       .  A
C457        C458   1.401       .  A
C457        H462   1.084       .  S
C458        C459   1.399       .  A
C459        H463   1.085       .  S
C460        C517   1.399       .  A
C460        C461   1.401       .  A
C461        C514   1.405       .  A
C461        H464   1.084       .  S
C465        C483   1.468       .  S
C465        C640   1.402   1_545  A
C466        C639   1.402       .  A
C466        H471   1.084       .  S
C467        C474   1.469       .  S
C468        C643   1.400       .  A
C468        H472   1.084       .  S
C469        C514   1.468       .  S
C469        C642   1.400   1_545  A
C470        H473   1.084       .  S
C474        C479   1.406       .  A
C475        C476   1.400       .  A
C475        H480   1.084       .  S
C476        C494   1.463       .  S
C477        C478   1.398       .  A
C477        H481   1.085       .  S
C478        C503   1.464       .  S
C478        C479   1.401       .  A
C479        H482   1.084       .  S
C483        C484   1.405   1_554  A
C484        C485   1.401       .  A
C484        H489   1.084       .  S
C485        C497   1.464       .  S
C485        C486   1.399   1_556  A
C486        H490   1.085       .  S
C487        C506   1.464       .  S
C487        C488   1.400       .  A
C488        H491   1.084       .  S
O492       Cr510   1.974       .  S
O492        C500   1.254       .  A
O493       Cr510   1.977       .  S
O493        C494   1.255       .  A
C494        O495   1.254       .  A
O495       Cr511   1.975       .  S
O496       Cr511   1.979       .  S
O496        C497   1.255       .  A
C497        O498   1.254       .  A
O498       Cr512   1.974       .  S
O499       Cr512   1.979       .  S
O499        C500   1.255       .  A
C500        C518   1.464       .  S
O501       Cr510   1.974       .  S
O501        C509   1.254       .  A
O502       Cr510   1.977       .  S
O502        C503   1.255       .  A
C503        O504   1.254       .  A
O504       Cr511   1.976       .  S
O505       Cr511   1.978       .  S
O505        C506   1.255       .  A
C506        O507   1.254       .  A
O507       Cr512   1.974       .  S
O508       Cr512   1.980       .  S
O508        C509   1.255       .  A
C509        C516   1.464       .  S
Cr510       O513   1.829       .  S
Cr511       O513   1.829       .  S
Cr512       O513   1.829       .  S
C514        C515   1.405       .  A
C515        C516   1.401       .  A
C515        H520   1.084       .  S
C516        C517   1.399       .  A
C517        H521   1.085       .  S
C518        C519   1.401       .  A
C519        H522   1.084       .  S
C523        C541   1.468       .  S
C524        C583   1.402       .  A
C524        H529   1.084       .  S
C525        C532   1.468       .  S
C525        C640   1.402   1_556  A
C526        H530   1.084       .  S
C527        C572   1.468       .  S
C527        C644   1.401   1_556  A
C528        C585   1.401       .  A
C528        H531   1.084       .  S
C532        C649   1.405       .  A
C532        C537   1.405   1_556  A
C533        C590   1.406       .  A
C533        C534   1.401       .  A
C533        H538   1.084       .  S
C534        C552   1.464       .  S
C534        C593   1.398       .  A
C535        C650   1.398       .  A
C535        C536   1.398   1_556  A
C535        H539   1.085       .  S
C536        C561   1.463       .  S
C536        C537   1.400       .  A
C537        H540   1.084       .  S
C541        C542   1.405       .  A
C541        C604   1.405       .  A
C542        C543   1.400       .  A
C542        H547   1.084       .  S
C543        C555   1.464       .  S
C543        C544   1.399       .  A
C544        C603   1.399       .  A
C544        H548   1.085       .  S
C545        C564   1.464       .  S
C545        C660   1.399       .  A
C545        C546   1.401       .  A
C546        C657   1.405       .  A
C546        H549   1.084       .  S
O550       Cr568   1.974       .  S
O550        C558   1.254       .  A
O551       Cr568   1.977       .  S
O551        C552   1.255       .  A
C552        O553   1.254       .  A
O553       Cr569   1.976       .  S
O554       Cr569   1.978       .  S
O554        C555   1.255       .  A
C555        O556   1.254       .  A
O556       Cr570   1.974       .  S
O557       Cr570   1.980       .  S
O557        C558   1.255       .  A
C558        C576   1.464       .  S
O559       Cr568   1.974       .  S
O559        C567   1.254       .  A
O560       Cr568   1.977       .  S
O560        C561   1.255       .  A
C561        O562   1.254       .  A
O562       Cr569   1.975       .  S
O563       Cr569   1.979       .  S
O563        C564   1.255       .  A
C564        O565   1.254       .  A
O565       Cr570   1.974       .  S
O566       Cr570   1.979       .  S
O566        C567   1.255       .  A
C567        C574   1.464       .  S
Cr568       O571   1.829       .  S
Cr569       O571   1.829       .  S
Cr570       O571   1.829       .  S
C572        C573   1.405   1_556  A
C572        C693   1.405       .  A
C573        C574   1.401       .  A
C573        H578   1.084       .  S
C574        C575   1.399       .  A
C575        C692   1.399   1_554  A
C575        H579   1.085       .  S
C576        C633   1.399       .  A
C576        C577   1.401       .  A
C577        C630   1.405       .  A
C577        H580   1.084       .  S
C581        C599   1.468       .  S
C582        C641   1.402       .  A
C582        H587   1.084       .  S
C583        C590   1.469       .  S
C584        H588   1.084       .  S
C585        C630   1.468       .  S
C586        C643   1.401       .  A
C586        H589   1.084       .  S
C590        C595   1.406       .  A
C591        C648   1.406       .  A
C591        C592   1.401       .  A
C591        H596   1.084       .  S
C592        C610   1.464       .  S
C592        C651   1.398       .  A
C593        C594   1.398       .  A
C593        H597   1.085       .  S
C594        C619   1.464       .  S
C594        C595   1.401       .  A
C595        H598   1.084       .  S
C599        C600   1.405       .  A
C599        C662   1.405       .  A
C600        C601   1.401       .  A
C600        H605   1.084       .  S
C601        C613   1.464       .  S
C601        C602   1.399       .  A
C602        C661   1.399       .  A
C602        H606   1.085       .  S
C603        C622   1.464       .  S
C603        C604   1.401       .  A
C604        H607   1.084       .  S
O608       Cr626   1.974       .  S
O608        C616   1.254       .  A
O609       Cr626   1.978       .  S
O609        C610   1.255       .  A
C610        O611   1.254       .  A
O611       Cr627   1.975       .  S
O612       Cr627   1.978       .  S
O612        C613   1.255       .  A
C613        O614   1.254       .  A
O614       Cr628   1.974       .  S
O615       Cr628   1.979       .  S
O615        C616   1.255       .  A
C616        C634   1.464       .  S
O617       Cr626   1.974       .  S
O617        C625   1.254       .  A
O618       Cr626   1.978       .  S
O618        C619   1.255       .  A
C619        O620   1.254       .  A
O620       Cr627   1.975       .  S
O621       Cr627   1.978       .  S
O621        C622   1.255       .  A
C622        O623   1.254       .  A
O623       Cr628   1.974       .  S
O624       Cr628   1.979       .  S
O624        C625   1.255       .  A
C625        C632   1.464       .  S
Cr626       O629   1.829       .  S
Cr627       O629   1.829       .  S
Cr628       O629   1.829       .  S
C630        C631   1.405       .  A
C631        C632   1.401       .  A
C631        H636   1.084       .  S
C632        C633   1.399       .  A
C633        H637   1.085       .  S
C634        C691   1.399       .  A
C634        C635   1.401       .  A
C635        C688   1.405       .  A
C635        H638   1.084       .  S
C639        C657   1.468       .  S
C640        H645   1.084       .  S
C641        C648   1.469       .  S
C642        H646   1.084       .  S
C643        C688   1.468       .  S
C644        H647   1.084       .  S
C648        C653   1.406       .  A
C649        C650   1.400       .  A
C649        H654   1.084       .  S
C650        C668   1.463       .  S
C651        C652   1.398       .  A
C651        H655   1.085       .  S
C652        C677   1.464       .  S
C652        C653   1.401       .  A
C653        H656   1.084       .  S
C657        C658   1.405   1_554  A
C658        C659   1.401       .  A
C658        H663   1.084       .  S
C659        C671   1.464       .  S
C659        C660   1.399   1_556  A
C660        H664   1.085       .  S
C661        C680   1.464       .  S
C661        C662   1.400       .  A
C662        H665   1.084       .  S
O666       Cr684   1.974       .  S
O666        C674   1.254       .  A
O667       Cr684   1.977       .  S
O667        C668   1.255       .  A
C668        O669   1.254       .  A
O669       Cr685   1.975       .  S
O670       Cr685   1.979       .  S
O670        C671   1.255       .  A
C671        O672   1.254       .  A
O672       Cr686   1.974       .  S
O673       Cr686   1.979       .  S
O673        C674   1.255       .  A
C674        C692   1.464       .  S
O675       Cr684   1.974       .  S
O675        C683   1.254       .  A
O676       Cr684   1.977       .  S
O676        C677   1.255       .  A
C677        O678   1.254       .  A
O678       Cr685   1.976       .  S
O679       Cr685   1.978       .  S
O679        C680   1.255       .  A
C680        O681   1.254       .  A
O681       Cr686   1.974       .  S
O682       Cr686   1.980       .  S
O682        C683   1.255       .  A
C683        C690   1.464       .  S
Cr684       O687   1.829       .  S
Cr685       O687   1.829       .  S
Cr686       O687   1.829       .  S
C688        C689   1.405       .  A
C689        C690   1.401       .  A
C689        H694   1.084       .  S
C690        C691   1.399       .  A
C691        H695   1.085       .  S
C692        C693   1.401       .  A
C693        H696   1.084       .  S
