geometry optimzed in LAMMPS
_audit_creation_date              2020-11-30 
_audit_creation_method            'lammps2cif' 
_symmetry_space_group_name_H-M    'P1' 
_symmetry_Int_Tables_number       1 
_symmetry_cell_setting            triclinic 
loop_ 
_symmetry_equiv_pos_as_xyz 
  x,y,z 
_cell_length_a                    31.779037401704244 
_cell_length_b                    31.67891913789334 
_cell_length_c                    51.63198475803696 
_cell_angle_alpha                 91.01223807729264 
_cell_angle_beta                  89.7653233735427 
_cell_angle_gamma                 90.7559394893012 
loop_ 
_atom_site_label 
_atom_site_type_symbol 
_atom_site_fract_x 
_atom_site_fract_y 
_atom_site_fract_z 
_atom_site_charge 
N1          N  0.19588718  0.18316569  0.16728117    -0.07030
N2          N  0.16305425  0.18322499  0.18262163    -0.59150
N3          N  0.27578110  0.23043514  0.13696376    -0.06710
N4          N  0.29534814  0.26743521  0.13720817    -0.61270
N5          N  0.23918697  0.23305013  0.12544976    -0.06300
N6          N  0.23309480  0.27171340  0.11753280    -0.59120
N7          N  0.23114287  0.18033650  0.18024048    -0.05980
N8          N  0.22258086  0.17827294  0.20531145    -0.61630
C9          C  0.17980481  0.18010556  0.20621638     0.95150
C10         C  0.26838946  0.29279796  0.12483062     0.94930
N11         N  0.35690120  0.12974004  0.12209367    -0.07210
N12         N  0.39700417  0.12443774  0.11658854    -0.59720
N13         N  0.30785237  0.11884390  0.17961438    -0.05330
N14         N  0.32229360  0.12088639  0.20338403    -0.60980
N15         N  0.31973089  0.08393393  0.16766779    -0.07240
N16         N  0.34397861  0.06204684  0.18339260    -0.59990
N17         N  0.35169833  0.16441874  0.13628003    -0.04970
N18         N  0.38881727  0.18257328  0.14092156    -0.61060
Mn19       Mn  0.29181122  0.17434814  0.15859361     1.18440
C20         C  0.41659801  0.15783305  0.12790535     0.97230
C21         C  0.34428831  0.08533544  0.20581275     0.97900
N22         N  0.19046834  0.17984463  0.08533615    -0.07260
N23         N  0.18867615  0.21319632  0.07078078    -0.63570
N24         N  0.15185485  0.09486742  0.11483692    -0.06060
N25         N  0.11583802  0.07358205  0.11287735    -0.64240
N26         N  0.14591651  0.13086283  0.12724847    -0.06770
N27         N  0.10620210  0.13459609  0.13421702    -0.63830
N28         N  0.19777260  0.14543346  0.07163747    -0.05660
N29         N  0.20167796  0.15531053  0.04687611    -0.64520
Mn30       Mn  0.19248686  0.18207524  0.12638438     1.10660
C31         C  0.19550552  0.19786196  0.04683288     0.98450
C32         C  0.08790902  0.09836051  0.12568420     0.98530
N33         N  0.26429344  0.02793437  0.12764494    -0.06780
N34         N  0.27517514  0.98989080  0.13408477    -0.62150
N35         N  0.26728902  0.07671130  0.07047025    -0.06090
N36         N  0.26574893  0.06235931  0.04653106    -0.58880
N37         N  0.30398005  0.06918228  0.08111275    -0.07400
N38         N  0.32749526  0.04748608  0.06425181    -0.61720
N39         N  0.22893302  0.02705626  0.11425444    -0.06390
N40         N  0.21638289  0.98707749  0.11076099    -0.58900
Mn41       Mn  0.31157454  0.07744691  0.12443815     1.20190
Mn42       Mn  0.21051769  0.08535145  0.09252083     1.10090
Cl43       Cl  0.25191571  0.12943143  0.12545071    -0.86870
C44         C  0.24566120  0.96436917  0.12357907     0.95460
C45         C  0.30325702  0.04464452  0.04254935     0.95260
N46         N  0.26914239  0.53349582  0.11441568    -0.07030
N47         N  0.27473572  0.49460701  0.10595045    -0.59150
N48         N  0.19857880  0.59836797  0.13847279    -0.06710
N49         N  0.16002746  0.60067787  0.14798042    -0.61270
N50         N  0.19772469  0.59737756  0.11294873    -0.06300
N51         N  0.15846926  0.59842307  0.10470054    -0.59120
N52         N  0.27163701  0.53564425  0.13983175    -0.05980
N53         N  0.27853186  0.49782814  0.14921071    -0.61630
C54         C  0.28122255  0.47294142  0.12770494     0.95150
C55         C  0.13524861  0.60076440  0.12675849     0.94930
N56         N  0.27105596  0.68656200  0.18007263    -0.07210
N57         N  0.26156402  0.71337815  0.19926818    -0.59720
N58         N  0.31817021  0.59593141  0.18282905    -0.05330
N59         N  0.32940991  0.57614559  0.20417137    -0.60980
N60         N  0.34480752  0.62719172  0.17860283    -0.07240
N61         N  0.37507604  0.62834530  0.19559037    -0.59990
N62         N  0.24418325  0.65459214  0.18004702    -0.04970
N63         N  0.21559345  0.65942676  0.19829950    -0.61060
Mn64       Mn  0.25772245  0.59489266  0.16065658     1.18440
C65         C  0.22623039  0.69623709  0.21003114     0.97230
C66         C  0.36574264  0.59646674  0.21125737     0.97900
N67         N  0.24735704  0.64195669  0.06408144    -0.07260
N68         N  0.22863577  0.64358849  0.04107107    -0.63570
N69         N  0.34228743  0.60716048  0.06567804    -0.06060
N70         N  0.36555264  0.59736556  0.04489851    -0.64240
N71         N  0.31413507  0.57695194  0.06929728    -0.06770
N72         N  0.31863612  0.54603400  0.05231565    -0.63830
N73         N  0.27490333  0.67317333  0.06615175    -0.05660
N74         N  0.27420798  0.69728075  0.04602270    -0.64520
Mn75       Mn  0.25580752  0.58720522  0.09014282     1.10660
C76         C  0.24557807  0.67910361  0.03054424     0.98450
C77         C  0.35090402  0.55833416  0.03726489     0.98530
N78         N  0.38934521  0.67173570  0.13451948    -0.06780
N79         N  0.42732619  0.66655336  0.14412658    -0.62150
N80         N  0.31607633  0.73015323  0.10665928    -0.06090
N81         N  0.30143215  0.76474597  0.09608899    -0.58880
N82         N  0.31430148  0.73358460  0.13205409    -0.07400
N83         N  0.29905484  0.77042135  0.13934078    -0.61720
N84         N  0.38992985  0.66584296  0.10928471    -0.06390
N85         N  0.42829031  0.65701539  0.10113441    -0.58900
Mn86       Mn  0.33025268  0.68104401  0.15640308     1.20190
Mn87       Mn  0.33212970  0.66954284  0.08687559     1.10090
Cl88       Cl  0.29388346  0.63312427  0.12351843    -0.86870
C89         C  0.45136155  0.65752268  0.12311258     0.95460
C90         C  0.29063867  0.78924053  0.11674588     0.95260
N91         N  0.84942430  0.12685960  0.13799606    -0.07030
N92         N  0.88753973  0.11659917  0.14550227    -0.59150
N93         N  0.78848627  0.20126734  0.11542831    -0.06710
N94         N  0.79046948  0.23955625  0.10576542    -0.61270
N95         N  0.78898605  0.20312657  0.14099680    -0.06300
N96         N  0.79125897  0.24308630  0.14906702    -0.59120
N97         N  0.84681017  0.12499807  0.11256799    -0.05980
N98         N  0.88343928  0.11451915  0.10226006    -0.61630
C99         C  0.90835945  0.10887495  0.12309196     0.95150
C100        C  0.79195868  0.26538635  0.12682184     0.94930
N101        N  0.69640496  0.13059026  0.07466102    -0.07210
N102        N  0.67016005  0.14034442  0.05574558    -0.59720
N103        N  0.78437521  0.08005456  0.07031218    -0.05330
N104        N  0.80262539  0.06834498  0.04813810    -0.60980
N105        N  0.75269847  0.05419520  0.07512599    -0.07240
N106        N  0.74974249  0.02406115  0.05761868    -0.59990
N107        N  0.72901839  0.15669753  0.07444679    -0.04970
N108        N  0.72518919  0.18489870  0.05620476    -0.61060
Mn109      Mn  0.78818970  0.14113229  0.09293843     1.18440
C110        C  0.68825617  0.17498466  0.04484302     0.97230
C111        C  0.78092077  0.03261866  0.04105092     0.97900
N112        N  0.74242035  0.15454676  0.19155210    -0.07260
N113        N  0.74740411  0.16359852  0.21668240    -0.63570
N114        N  0.77096453  0.05954884  0.18793842    -0.06060
N115        N  0.78012932  0.03500970  0.20785257    -0.64240
N116        N  0.80291415  0.08546856  0.18382163    -0.06770
N117        N  0.83390877  0.07876128  0.19991021    -0.63830
N118        N  0.70731478  0.13216957  0.18873399    -0.05660
N119        N  0.68676415  0.12985983  0.21074063    -0.64520
Mn120      Mn  0.79603542  0.14386711  0.16349217     1.10660
C121        C  0.71197416  0.14836028  0.22833247     0.98450
C122        C  0.82006453  0.04708435  0.21477813     0.98530
N123        N  0.70684576  0.01231341  0.12020461    -0.06780
N124        N  0.71286198  0.97364209  0.11091823    -0.62150
N125        N  0.64869116  0.08920396  0.14786690    -0.06090
N126        N  0.61307602  0.10371201  0.15791962    -0.58880
N127        N  0.64680983  0.08970885  0.12244561    -0.07400
N128        N  0.61049756  0.10438343  0.11466576    -0.61720
N129        N  0.71094310  0.01297158  0.14552227    -0.06390
N130        N  0.71921114  0.97484445  0.15399757    -0.58900
Mn131      Mn  0.69962357  0.07138855  0.09811882     1.20190
Mn132      Mn  0.70882274  0.07266627  0.16760756     1.10090
Cl133      Cl  0.74805530  0.10756419  0.13057540    -0.86870
C134        C  0.72032956  0.95046773  0.13220830     0.95460
C135        C  0.58956491  0.11300921  0.13687011     0.95260
N136        N  0.81241352  0.66343485  0.07300116    -0.07030
N137        N  0.81805076  0.69518743  0.05730072    -0.59150
N138        N  0.77842575  0.56357201  0.06937839    -0.06710
N139        N  0.77447542  0.53375354  0.05181389    -0.61270
N140        N  0.74842476  0.59157134  0.06769274    -0.06300
N141        N  0.72376238  0.58149168  0.04772969    -0.59120
N142        N  0.84246184  0.63542689  0.07027454    -0.05980
N143        N  0.86855538  0.64768014  0.05148805    -0.61630
C144        C  0.85317446  0.68568463  0.04403936     0.95150
C145        C  0.74041307  0.54471306  0.03862854     0.94930
N146        N  0.81945448  0.50925167  0.13546004    -0.07210
N147        N  0.81159614  0.47049346  0.14319078    -0.59720
N148        N  0.89106400  0.58190028  0.11386962    -0.05330
N149        N  0.92985066  0.58838124  0.10568619    -0.60980
N150        N  0.88991680  0.57785810  0.13914825    -0.07240
N151        N  0.92840107  0.58210441  0.14873710    -0.59990
N152        N  0.82387100  0.51038760  0.11015120    -0.04970
N153        N  0.81923657  0.47170453  0.10011501    -0.61060
Mn154      Mn  0.83497010  0.57263674  0.09057357     1.18440
C155        C  0.81137745  0.44725146  0.12105131     0.97230
C156        C  0.95300156  0.58864432  0.12754603     0.97900
N157        N  0.69431837  0.63741085  0.11303452    -0.07260
N158        N  0.65581160  0.63487819  0.10361701    -0.63570
N159        N  0.76080550  0.70727089  0.14203692    -0.06060
N160        N  0.75845197  0.74599105  0.15193438    -0.64240
N161        N  0.76047447  0.70833929  0.11654912    -0.06770
N162        N  0.75864973  0.74775533  0.10872218    -0.63830
N163        N  0.69333425  0.63777688  0.13850548    -0.05660
N164        N  0.65415340  0.63503565  0.14690816    -0.64520
Mn165      Mn  0.75317467  0.65035681  0.09222159     1.10660
C166        C  0.63104089  0.63301359  0.12496220     0.98450
C167        C  0.75759279  0.77107569  0.13093023     0.98530
N168        N  0.83797286  0.62188724  0.18203513    -0.06780
N169        N  0.86726116  0.62441743  0.19960910    -0.62150
N170        N  0.73918452  0.58640125  0.17985689    -0.06090
N171        N  0.70703824  0.57829786  0.19512296    -0.58880
N172        N  0.76718292  0.55622150  0.18059437    -0.07400
N173        N  0.75463592  0.52727977  0.19743457    -0.61720
N174        N  0.80968559  0.65147318  0.18541449    -0.06390
N175        N  0.81890259  0.67396542  0.20669009    -0.58900
Mn176      Mn  0.82887383  0.56546780  0.15958316     1.20190
Mn177      Mn  0.75073252  0.64673511  0.16189622     1.10090
Cl178      Cl  0.79204903  0.60897175  0.12606941    -0.86870
C179        C  0.85563326  0.65685888  0.21469381     0.95460
C180        C  0.71646590  0.54132695  0.20588312     0.95260
N181        N  0.20983724  0.31747155  0.91926380    -0.07030
N182        N  0.21099670  0.28637327  0.93543432    -0.59150
N183        N  0.14979215  0.38696573  0.89047663    -0.06710
N184        N  0.11079634  0.40135231  0.89164313    -0.61270
N185        N  0.14950456  0.34886027  0.87987158    -0.06300
N186        N  0.11143947  0.33690030  0.87336425    -0.59120
N187        N  0.21225699  0.35436060  0.93126555    -0.05980
N188        N  0.21482434  0.34828982  0.95667332    -0.61630
C189        C  0.21439361  0.30528336  0.95863808     0.95150
C190        C  0.08745606  0.36953447  0.88059884     0.94930
N191        N  0.24068844  0.47666720  0.86450238    -0.07210
N192        N  0.24047656  0.51587532  0.85616233    -0.59720
N193        N  0.27100061  0.43700183  0.92155343    -0.05330
N194        N  0.28000472  0.45002799  0.94535746    -0.60980
N195        N  0.30187024  0.44692735  0.90551383    -0.07240
N196        N  0.33226610  0.46746344  0.91830450    -0.59990
N197        N  0.21028334  0.47086593  0.88172974    -0.04970
N198        N  0.18954841  0.50673353  0.88542140    -0.61060
Mn199      Mn  0.20970437  0.41302972  0.90704768     1.18440
C200        C  0.20832218  0.53448948  0.86902910     0.97230
C201        C  0.31832451  0.46876362  0.94320886     0.97900
N202        N  0.19390866  0.29653665  0.83746867    -0.07260
N203        N  0.15967700  0.28717561  0.82405802    -0.63570
N204        N  0.28840877  0.27297049  0.86290118    -0.06060
N205        N  0.31597421  0.24213576  0.86335216    -0.64240
N206        N  0.25677537  0.26519949  0.87846896    -0.06770
N207        N  0.26223910  0.22912912  0.89030764    -0.63830
N208        N  0.22596001  0.30279591  0.82203064    -0.05660
N209        N  0.21471422  0.29767679  0.79764460    -0.64520
Mn210      Mn  0.20189317  0.30680957  0.87891940     1.10660
C211        C  0.17336570  0.28746999  0.79920248     0.98450
C212        C  0.29955213  0.21522397  0.88091159     0.98530
N213        N  0.34780659  0.39111199  0.86241121    -0.06780
N214        N  0.38724796  0.40000494  0.86800322    -0.62150
N215        N  0.27987748  0.37994696  0.81255757    -0.06090
N216        N  0.28657310  0.37301218  0.78786320    -0.58880
N217        N  0.29121975  0.41854012  0.81966269    -0.07400
N218        N  0.30988233  0.43677962  0.79951415    -0.61720
N219        N  0.34401831  0.35241417  0.85303887    -0.06390
N220        N  0.38083124  0.33401428  0.85218238    -0.58900
Mn221      Mn  0.29579737  0.43438599  0.86262985     1.20190
Mn222      Mn  0.28514776  0.32696990  0.83752426     1.10090
Cl223      Cl  0.24800681  0.37079298  0.87158636    -0.86870
C224        C  0.40733236  0.36404261  0.86163601     0.95460
C225        C  0.30567503  0.40797650  0.77956948     0.95260
N226        N  0.30105564  0.79966351  0.90681725    -0.07030
N227        N  0.31186507  0.76638838  0.92084512    -0.59150
N228        N  0.21494101  0.78291819  0.88001134    -0.06710
N229        N  0.19239223  0.74776800  0.88381077    -0.61270
N230        N  0.24475454  0.77515607  0.86277903    -0.06300
N231        N  0.24272433  0.73549248  0.85459604    -0.59120
N232        N  0.27554263  0.82320873  0.92068490    -0.05980
N233        N  0.27212146  0.80988280  0.94418048    -0.61630
C234        C  0.29356002  0.77413174  0.94452838     0.95150
C235        C  0.20967946  0.71850202  0.86740550     0.94930
N236        N  0.15959553  0.90451196  0.87765269    -0.07210
N237        N  0.12376620  0.90984249  0.86542895    -0.59720
N238        N  0.22427313  0.90103146  0.93024334    -0.05330
N239        N  0.24196602  0.90456949  0.95350749    -0.60980
N240        N  0.22105161  0.93856930  0.92015111    -0.07240
N241        N  0.23610698  0.96795601  0.93603332    -0.59990
N242        N  0.16109682  0.86644483  0.88717657    -0.04970
N243        N  0.12651022  0.84491744  0.88167151    -0.61060
Mn244      Mn  0.21786442  0.84321619  0.90488734     1.18440
C245        C  0.10354411  0.87233200  0.86809165     0.97230
C246        C  0.24898755  0.94674728  0.95687253     0.97900
N247        N  0.30194163  0.82888830  0.82123471    -0.07260
N248        N  0.31034305  0.80647408  0.79982124    -0.63570
N249        N  0.36190037  0.89182264  0.85823638    -0.06060
N250        N  0.40214696  0.90410469  0.85816673    -0.64240
N251        N  0.35911759  0.85264630  0.86654030    -0.06770
N252        N  0.39640308  0.83808390  0.87227767    -0.63830
N253        N  0.29866724  0.86873082  0.81499851    -0.05660
N254        N  0.30146604  0.87381941  0.79004014    -0.64520
Mn255      Mn  0.30247466  0.81312655  0.86378693     1.10660
C256        C  0.30882662  0.83533166  0.78038728     0.98450
C257        C  0.42320840  0.87004919  0.86714170     0.98530
N258        N  0.27145405  0.98620805  0.88018777    -0.06780
N259        N  0.27459407  0.02381152  0.89121316    -0.62150
N260        N  0.24530345  0.94517960  0.82271135    -0.06090
N261        N  0.23459757  0.94358913  0.79796269    -0.58880
N262        N  0.21197714  0.95305176  0.83703507    -0.07400
N263        N  0.17825623  0.95726731  0.82248028    -0.61720
N264        N  0.30536084  0.97772868  0.86654909    -0.06390
N265        N  0.33177306  0.01045317  0.86729001    -0.58900
Mn266      Mn  0.21473839  0.94647844  0.87889354     1.20190
Mn267      Mn  0.30428985  0.92182719  0.84056603     1.10090
Cl268      Cl  0.25988706  0.88099832  0.87187588    -0.86870
C269        C  0.31237905  0.03862968  0.88330279     0.95460
C270        C  0.19272924  0.95155037  0.79804004     0.95260
N271        N  0.69114529  0.27593897  0.90811441    -0.07030
N272        N  0.68649526  0.24343376  0.92374697    -0.59150
N273        N  0.64471722  0.35617125  0.87743242    -0.06710
N274        N  0.60827800  0.37484581  0.87597599    -0.61270
N275        N  0.64416935  0.32011353  0.86461798    -0.06300
N276        N  0.60702923  0.31328809  0.85402772    -0.59120
N277        N  0.68974811  0.31167966  0.92144056    -0.05980
N278        N  0.68422320  0.30419721  0.94632645    -0.61630
C279        C  0.68210967  0.26154267  0.94764830     0.95150
C280        C  0.58523706  0.34794392  0.86118009     0.94930
N281        N  0.73835546  0.44790546  0.87261155    -0.07210
N282        N  0.74020968  0.48873167  0.86849340    -0.59720
N283        N  0.74671699  0.39113623  0.92722310    -0.05330
N284        N  0.73858476  0.40399604  0.95087819    -0.60980
N285        N  0.78075692  0.40970211  0.91810122    -0.07240
N286        N  0.79503662  0.43764679  0.93553825    -0.59990
N287        N  0.70261168  0.43740012  0.88394939    -0.04970
N288        N  0.67959146  0.47164587  0.88780008    -0.61060
Mn289      Mn  0.69551641  0.37405014  0.90254495     1.18440
C290        C  0.70318439  0.50325153  0.87745498     0.97230
C291        C  0.76858081  0.43282448  0.95608714     0.97900
N292        N  0.70444453  0.28555050  0.82323425    -0.07260
N293        N  0.67284229  0.29319528  0.80751057    -0.63570
N294        N  0.78836301  0.24703710  0.85548988    -0.06060
N295        N  0.81405725  0.21428120  0.85514497    -0.64240
N296        N  0.75207299  0.23623846  0.86586967    -0.06770
N297        N  0.75241189  0.19652548  0.87305335    -0.63830
N298        N  0.74031420  0.29808644  0.81280675    -0.05660
N299        N  0.73321149  0.31464527  0.78983571    -0.64520
Mn300      Mn  0.69759066  0.27786312  0.86539939     1.10660
C301        C  0.69094069  0.31106042  0.78660600     0.98450
C302        C  0.79123742  0.18297105  0.86646418     0.98530
N303        N  0.84533678  0.36496319  0.87848348    -0.06780
N304        N  0.88192569  0.37593590  0.88839193    -0.62150
N305        N  0.80529283  0.37161407  0.81972395    -0.06090
N306        N  0.82194920  0.37684722  0.79659114    -0.58880
N307        N  0.80544174  0.40746383  0.83300445    -0.07400
N308        N  0.82308765  0.43768747  0.81898741    -0.61720
N309        N  0.84827312  0.32980128  0.86447594    -0.06390
N310        N  0.88757528  0.31671998  0.86457073    -0.58900
Mn311      Mn  0.79288914  0.40787533  0.87548111     1.20190
Mn312      Mn  0.79643480  0.31028005  0.83768917     1.10090
Cl313      Cl  0.74614324  0.34235276  0.87039600    -0.86870
C314        C  0.90799117  0.34565729  0.87981715     0.95460
C315        C  0.83222135  0.41815906  0.79607798     0.95260
N316        N  0.73822691  0.91334513  0.91141026    -0.07030
N317        N  0.72083323  0.93825813  0.92941503    -0.59150
N318        N  0.81495362  0.93771401  0.87288331    -0.06710
N319        N  0.83679793  0.97378976  0.87440473    -0.61270
N320        N  0.77833148  0.94453437  0.86190802    -0.06300
N321        N  0.77510982  0.98444404  0.85558048    -0.59120
N322        N  0.77427483  0.89946237  0.92016988    -0.05980
N323        N  0.78140489  0.91268773  0.94384703    -0.61630
C324        C  0.74818514  0.93645615  0.94966422     0.95150
C325        C  0.81184207  0.00254535  0.86293131     0.94930
N326        N  0.87275762  0.81716278  0.86079415    -0.07210
N327        N  0.90858505  0.80871554  0.84893380    -0.59720
N328        N  0.83264416  0.82076260  0.91998465    -0.05330
N329        N  0.84266571  0.81752988  0.94481171    -0.60980
N330        N  0.82976068  0.78289960  0.90926856    -0.07240
N331        N  0.83820287  0.75345431  0.92617599    -0.59990
N332        N  0.87333955  0.85605882  0.87001111    -0.04970
N333        N  0.90918850  0.87507052  0.86450403    -0.61060
Mn334      Mn  0.82444237  0.87868426  0.89585462     1.18440
C335        C  0.93063364  0.84543428  0.85104513     0.97230
C336        C  0.84614483  0.77521856  0.94839087     0.97900
N337        N  0.71096043  0.89305737  0.82647919    -0.07260
N338        N  0.69355639  0.91808936  0.80921795    -0.63570
N339        N  0.66575425  0.82460979  0.86403932    -0.06060
N340        N  0.62538165  0.81347456  0.86256519    -0.64240
N341        N  0.66910939  0.86239179  0.87521430    -0.06770
N342        N  0.63166718  0.87707774  0.88134608    -0.63830
N343        N  0.71315278  0.85446508  0.81672241    -0.05660
N344        N  0.69907308  0.85263649  0.79293262    -0.64520
Mn345      Mn  0.72372890  0.90375832  0.86885036     1.10660
C346        C  0.68749918  0.89222795  0.78817569     0.98450
C347        C  0.60450934  0.84644557  0.87363440     0.98530
N348        N  0.76334557  0.73398513  0.87430272    -0.06780
N349        N  0.76235730  0.69629912  0.88474584    -0.62150
N350        N  0.77422687  0.77862614  0.81513575    -0.06090
N351        N  0.78096243  0.78291483  0.78983992    -0.58880
N352        N  0.80956088  0.76850796  0.82644984    -0.07400
N353        N  0.84037604  0.76535178  0.80948570    -0.61720
N354        N  0.72678111  0.74233335  0.86383411    -0.06390
N355        N  0.70034825  0.71009319  0.86676375    -0.58900
Mn356      Mn  0.81900175  0.77455722  0.86787326     1.20190
Mn357      Mn  0.71933191  0.79897783  0.83981294     1.10090
Cl358      Cl  0.77125500  0.83901397  0.86830218    -0.86870
C359        C  0.72280304  0.68175217  0.88020078     0.95460
C360        C  0.82250503  0.77393173  0.78664032     0.95260
N361        N  0.95740378  0.44000554  0.66907910    -0.07030
N362        N  0.92465148  0.44477052  0.68460271    -0.59150
N363        N  0.04251521  0.48328231  0.64120137    -0.06710
N364        N  0.06622818  0.51781022  0.64024365    -0.61270
N365        N  0.00778438  0.48799154  0.62783287    -0.06300
N366        N  0.00725062  0.52555017  0.61738973    -0.59120
N367        N  0.99186240  0.43459276  0.68257053    -0.05980
N368        N  0.98304048  0.43533940  0.70765918    -0.61630
C369        C  0.94092763  0.44191357  0.70865827     0.95150
C370        C  0.04389162  0.54379004  0.62513458     0.94930
N371        N  0.11806631  0.37846053  0.62821186    -0.07210
N372        N  0.15739470  0.37388192  0.62100339    -0.59720
N373        N  0.06229887  0.36533585  0.68252832    -0.05330
N374        N  0.06805718  0.35976151  0.70749201    -0.60980
N375        N  0.06955327  0.33017179  0.66943231    -0.07240
N376        N  0.08097497  0.30011640  0.68520442    -0.59990
N377        N  0.11360814  0.41351643  0.64197229    -0.04970
N378        N  0.15055638  0.43317168  0.64456732    -0.61060
Mn379      Mn  0.05322647  0.42513839  0.66272707     1.18440
C380        C  0.17752360  0.40799247  0.63113730     0.97230
C381        C  0.07912974  0.31883010  0.70889646     0.97900
N382        N  0.95888505  0.43785641  0.58382649    -0.07260
N383        N  0.95200379  0.46886801  0.56763831    -0.63570
N384        N  0.91784883  0.35262996  0.61260772    -0.06060
N385        N  0.88391576  0.32826799  0.61243957    -0.64240
N386        N  0.91098361  0.38815421  0.62534238    -0.06770
N387        N  0.87207761  0.38881648  0.63406285    -0.63830
N388        N  0.96557554  0.40238193  0.57097326    -0.05660
N389        N  0.96363808  0.40857538  0.54577463    -0.64520
Mn390      Mn  0.95786897  0.43954600  0.62651365     1.10660
C391        C  0.95506849  0.45018678  0.54390961     0.98450
C392        C  0.85582380  0.35107965  0.62617488     0.98530
N393        N  0.02136411  0.27935458  0.62584923    -0.06780
N394        N  0.02323272  0.24098842  0.63512863    -0.62150
N395        N  0.03561411  0.33377262  0.57152069    -0.06090
N396        N  0.04053388  0.32502032  0.54674312    -0.58880
N397        N  0.07042117  0.32666427  0.58428861    -0.07400
N398        N  0.09964392  0.31198278  0.56835394    -0.61720
N399        N  0.98691398  0.28381962  0.61225820    -0.06390
N400        N  0.96467700  0.24822187  0.61180990    -0.58900
Mn401      Mn  0.07051757  0.32816496  0.62692702     1.20190
Mn402      Mn  0.97594082  0.34274815  0.59134371     1.10090
Cl403      Cl  0.01456553  0.38413348  0.62685724    -0.86870
C404        C  0.98760974  0.22192427  0.62641532     0.95460
C405        C  0.08063732  0.31194442  0.54493204     0.95260
N406        N  0.95860197  0.82164817  0.66254064    -0.07030
N407        N  0.93683390  0.79418877  0.67661229    -0.59150
N408        N  0.92136161  0.90338233  0.63343108    -0.06710
N409        N  0.88526332  0.92360822  0.63304486    -0.61270
N410        N  0.91882647  0.86870993  0.61889176    -0.06300
N411        N  0.88137792  0.86488631  0.60845109    -0.59120
N412        N  0.96532728  0.85660577  0.67620840    -0.05980
N413        N  0.94914656  0.85317711  0.69963580    -0.61630
C414        C  0.93169419  0.81417106  0.69985542     0.95150
C415        C  0.86077760  0.89932414  0.61718403     0.94930
N416        N  0.02252474  0.98729606  0.62743132    -0.07210
N417        N  0.02378537  0.02720473  0.62067074    -0.59720
N418        N  0.03775663  0.92843241  0.67972067    -0.05330
N419        N  0.04612197  0.92737983  0.70487369    -0.60980
N420        N  0.07248678  0.93701720  0.66668457    -0.07240
N421        N  0.10478963  0.94163841  0.68238233    -0.59990
N422        N  0.98719178  0.97858402  0.63953129    -0.04970
N423        N  0.96360663  0.01259520  0.64141540    -0.61060
Mn424      Mn  0.97744041  0.91724731  0.65788501     1.18440
C425        C  0.98655220  0.04236586  0.62902926     0.97230
C426        C  0.08825987  0.93554318  0.70614376     0.97900
N427        N  0.97357944  0.81462732  0.57602644    -0.07260
N428        N  0.95673358  0.78590741  0.55980572    -0.63570
N429        N  0.05473161  0.78546915  0.60748855    -0.06060
N430        N  0.07816360  0.75126137  0.60598558    -0.64240
N431        N  0.01979324  0.77722611  0.62042418    -0.06770
N432        N  0.01878503  0.73784279  0.62793793    -0.63830
N433        N  0.00698521  0.83135080  0.56498929    -0.05660
N434        N  0.01170523  0.81701703  0.54118466    -0.64520
Mn435      Mn  0.96689729  0.81998161  0.61951745     1.10660
C436        C  0.98041447  0.78886859  0.53776961     0.98450
C437        C  0.05561266  0.72218061  0.61935729     0.98530
N438        N  0.12432147  0.89558082  0.62190654    -0.06780
N439        N  0.16188453  0.89675340  0.63278431    -0.62150
N440        N  0.06344284  0.90911081  0.56812546    -0.06090
N441        N  0.04434376  0.91762469  0.54606331    -0.58880
N442        N  0.06820839  0.94399116  0.58212512    -0.07400
N443        N  0.05266519  0.97639689  0.56975539    -0.61720
N444        N  0.11946068  0.86061491  0.60831105    -0.06390
N445        N  0.15330360  0.83711104  0.60954122    -0.58900
Mn446      Mn  0.07335271  0.94177396  0.62446340     1.20190
Mn447      Mn  0.06228337  0.84668777  0.58694969     1.10090
Cl448      Cl  0.01991027  0.88116059  0.62244600    -0.86870
C449        C  0.17954415  0.85985597  0.62499228     0.95460
C450        C  0.03798922  0.95980612  0.54722822     0.95260
N451        N  0.45066801  0.32296758  0.67166778    -0.07030
N452        N  0.41863002  0.31208032  0.68707418    -0.59150
N453        N  0.42284695  0.40307728  0.64119661    -0.06710
N454        N  0.38812600  0.42568993  0.64370837    -0.61270
N455        N  0.41482572  0.36859420  0.62731901    -0.06300
N456        N  0.37525763  0.36709879  0.62020908    -0.59120
N457        N  0.47149415  0.35423813  0.68300339    -0.05980
N458        N  0.45769322  0.36153741  0.70649581    -0.61630
C459        C  0.42430557  0.33614171  0.70907261     0.95150
C460        C  0.35879605  0.40286377  0.63021721     0.94930
N461        N  0.53443295  0.47003675  0.62805108    -0.07210
N462        N  0.53673756  0.50581815  0.61563482    -0.59720
N463        N  0.54567874  0.41359809  0.68276599    -0.05330
N464        N  0.55412099  0.40086054  0.70649910    -0.60980
N465        N  0.58068300  0.41739598  0.66945531    -0.07240
N466        N  0.61344190  0.40777695  0.68376872    -0.59990
N467        N  0.49890045  0.46701626  0.64076527    -0.04970
N468        N  0.47600376  0.50092717  0.63752661    -0.61060
Mn469      Mn  0.48442856  0.41035998  0.66216324     1.18440
C470        C  0.50003872  0.52470865  0.62158653     0.97230
C471        C  0.59671242  0.39784508  0.70701049     0.97900
N472        N  0.45922436  0.30795044  0.58461113    -0.07260
N473        N  0.43085484  0.28962916  0.56912903    -0.63570
N474        N  0.53875212  0.26662180  0.61475140    -0.06060
N475        N  0.55860318  0.23022332  0.61485925    -0.64240
N476        N  0.50364893  0.26401405  0.62850546    -0.06770
N477        N  0.49915355  0.22582844  0.63801182    -0.63830
N478        N  0.49479167  0.31350028  0.57178891    -0.05660
N479        N  0.49099575  0.29972561  0.54762031    -0.64520
Mn480      Mn  0.45644525  0.31486067  0.62800706     1.10660
C481        C  0.45086946  0.28563747  0.54593671     0.98450
C482        C  0.53376921  0.20511038  0.62958389     0.98530
N483        N  0.62138370  0.36694045  0.62618790    -0.06780
N484        N  0.66011615  0.36925563  0.63452084    -0.62150
N485        N  0.56853604  0.38408007  0.57118004    -0.06090
N486        N  0.56966970  0.39341749  0.54619853    -0.58880
N487        N  0.57658694  0.41830615  0.58521468    -0.07400
N488        N  0.58260428  0.45129918  0.57050744    -0.61720
N489        N  0.61500546  0.33241252  0.61232146    -0.06390
N490        N  0.65038602  0.31091570  0.61027943    -0.58900
Mn491      Mn  0.57897039  0.41899801  0.62726262     1.20190
Mn492      Mn  0.55491870  0.32347882  0.59175159     1.10090
Cl493      Cl  0.51840454  0.36672963  0.62706831    -0.86870
C494        C  0.67803996  0.33438328  0.62460524     0.95460
C495        C  0.57815303  0.43571678  0.54628197     0.95260
N496        N  0.57699956  0.81216896  0.66747484    -0.07030
N497        N  0.60836253  0.82585768  0.68216366    -0.59150
N498        N  0.49518711  0.76159011  0.63663629    -0.06710
N499        N  0.47211782  0.72689718  0.63376172    -0.61270
N500        N  0.53173732  0.75733954  0.62520351    -0.06300
N501        N  0.53443689  0.71998191  0.61394817    -0.59120
N502        N  0.54091370  0.81660796  0.67967819    -0.05980
N503        N  0.54738711  0.83347757  0.70300323    -0.61630
C504        C  0.58963645  0.83888459  0.70435597     0.95150
C505        C  0.49701611  0.70139194  0.61926741     0.94930
N506        N  0.41602149  0.86121517  0.62088664    -0.07210
N507        N  0.37640920  0.86537432  0.61449819    -0.59720
N508        N  0.46987767  0.87668702  0.67858825    -0.05330
N509        N  0.45580111  0.86998261  0.70188659    -0.60980
N510        N  0.44904545  0.90671121  0.66732116    -0.07240
N511        N  0.41641372  0.91705138  0.68244823    -0.59990
N512        N  0.42106793  0.82767004  0.63532929    -0.04970
N513        N  0.38402756  0.80884777  0.63909832    -0.61060
Mn514      Mn  0.48125891  0.81947453  0.65777101     1.18440
C515        C  0.35665209  0.83251588  0.62558388     0.97230
C516        C  0.42191317  0.89392015  0.70430619     0.97900
N517        N  0.57673548  0.80677952  0.58323855    -0.07260
N518        N  0.56602723  0.77354689  0.56888001    -0.63570
N519        N  0.61822687  0.89413021  0.61372991    -0.06060
N520        N  0.65322685  0.91687768  0.61216417    -0.64240
N521        N  0.62516677  0.85851586  0.62534164    -0.06770
N522        N  0.66476992  0.85625551  0.63228126    -0.63830
N523        N  0.56956708  0.84175640  0.57075667    -0.05660
N524        N  0.55358158  0.83251286  0.54763178    -0.64520
Mn525      Mn  0.57886525  0.80753503  0.62541148     1.10660
C526        C  0.55170848  0.78979415  0.54665921     0.98450
C527        C  0.68182637  0.89298985  0.62421391     0.98530
N528        N  0.50744221  0.96351532  0.62775017    -0.06780
N529        N  0.50177756  0.00193037  0.63701511    -0.62150
N530        N  0.50401118  0.90729772  0.57106050    -0.06090
N531        N  0.50841493  0.91824364  0.54700571    -0.58880
N532        N  0.46870824  0.92100187  0.58112455    -0.07400
N533        N  0.45022604  0.94548923  0.56391751    -0.61720
N534        N  0.54386593  0.96077641  0.61546024    -0.06390
N535        N  0.56348666  0.99797815  0.61626138    -0.58900
Mn536      Mn  0.45928819  0.91418702  0.62414855     1.20190
Mn537      Mn  0.56004179  0.90183030  0.59262342     1.10090
Cl538      Cl  0.51955042  0.86107710  0.62494605    -0.86870
C539        C  0.53695018  0.02320134  0.63007383     0.95460
C540        C  0.47539153  0.94225497  0.54241652     0.95260
N541        N  0.06476585  0.17060064  0.33709440    -0.07030
N542        N  0.09598995  0.17159056  0.32067455    -0.59150
N543        N  0.99536354  0.23013710  0.36788966    -0.06710
N544        N  0.98292806  0.26986365  0.36648867    -0.61270
N545        N  0.03296341  0.22931685  0.37843559    -0.06300
N546        N  0.04624139  0.26725364  0.38485113    -0.59120
N547        N  0.02819586  0.16978066  0.32528830    -0.05980
N548        N  0.03449593  0.17027319  0.29983504    -0.61630
C549        C  0.07730362  0.17150817  0.29758653     0.95150
C550        C  0.01515816  0.29243189  0.37755814     0.94930
N551        N  0.90509630  0.13588626  0.39049005    -0.07210
N552        N  0.86603516  0.13519512  0.39921675    -0.59720
N553        N  0.94584372  0.11116512  0.33225379    -0.05330
N554        N  0.93208931  0.10520309  0.30834561    -0.60980
N555        N  0.93594066  0.07853036  0.34667548    -0.07240
N556        N  0.91444072  0.05004172  0.33266534    -0.59990
N557        N  0.91121642  0.16831676  0.37504426    -0.04970
N558        N  0.87556754  0.18958325  0.37291970    -0.61060
Mn559      Mn  0.96940466  0.17105833  0.34952736     1.18440
C560        C  0.84774228  0.16892948  0.38852078     0.97230
C561        C  0.91277721  0.06694643  0.30867190     0.97900
N562        N  0.08312633  0.18283289  0.41879420    -0.07260
N563        N  0.09442306  0.21698396  0.43191325    -0.63570
N564        N  0.10856102  0.09051212  0.39209730    -0.06060
N565        N  0.14019988  0.06383788  0.39175789    -0.64240
N566        N  0.11623681  0.12208487  0.37673296    -0.06770
N567        N  0.15318943  0.11767907  0.36531146    -0.63830
N568        N  0.07505966  0.15149023  0.43426695    -0.05660
N569        N  0.08090673  0.16350497  0.45865726    -0.64520
Mn570      Mn  0.07431660  0.17643791  0.37755457     1.10660
C571        C  0.09317561  0.20454217  0.45671289     0.98450
C572        C  0.16769759  0.08094602  0.37467787     0.98530
N573        N  0.99214957  0.02975723  0.38794583    -0.06780
N574        N  0.98560046  0.99048686  0.38015452    -0.62150
N575        N  0.99761643  0.09170193  0.44144461    -0.06090
N576        N  0.00178750  0.08144845  0.46575828    -0.58880
N577        N  0.95972425  0.08166641  0.43280274    -0.07400
N578        N  0.93864554  0.06162695  0.45135550    -0.61720
N579        N  0.02981344  0.03409767  0.39821337    -0.06390
N580        N  0.04986676  0.99822150  0.39731683    -0.58900
Mn581      Mn  0.94727820  0.08087960  0.38974162     1.20190
Mn582      Mn  0.05267565  0.09164633  0.41689834     1.10090
Cl583      Cl  0.01038283  0.13017667  0.38349045    -0.86870
C584        C  0.02212639  0.97148274  0.38592671     0.95460
C585        C  0.96517329  0.06296711  0.47205636     0.95260
N586        N  0.11893288  0.69202866  0.34561527    -0.07030
N587        N  0.15220204  0.69811264  0.33045803    -0.59150
N588        N  0.03458879  0.73441299  0.37594917    -0.06710
N589        N  0.01444650  0.77011663  0.37739727    -0.61270
N590        N  0.06962140  0.73645048  0.38920081    -0.06300
N591        N  0.07429329  0.77419002  0.40002082    -0.59120
N592        N  0.08415371  0.69241714  0.33189195    -0.05980
N593        N  0.09300811  0.69862402  0.30726148    -0.61630
C594        C  0.13546322  0.70226549  0.30645094     0.95150
C595        C  0.03920307  0.79445502  0.39265512     0.94930
N596        N  0.94592855  0.63890414  0.37727978    -0.07210
N597        N  0.90509069  0.63617502  0.38120730    -0.59720
N598        N  0.00767980  0.63315419  0.32316285    -0.05330
N599        N  0.99570285  0.64319149  0.29993068    -0.60980
N600        N  0.98761748  0.59925668  0.33119359    -0.07240
N601        N  0.95911077  0.58762116  0.31358223    -0.59990
N602        N  0.95628037  0.67513644  0.36675896    -0.04970
N603        N  0.92193114  0.69779750  0.36335216    -0.61060
Mn604      Mn  0.02078764  0.68412025  0.34942570     1.18440
C605        C  0.89038621  0.67329586  0.37305618     0.97230
C606        C  0.96535008  0.61520475  0.29395246     0.97900
N607        N  0.10159294  0.67550637  0.42977887    -0.07260
N608        N  0.08745030  0.70610418  0.44509632    -0.63570
N609        N  0.14653137  0.59336699  0.39572049    -0.06060
N610        N  0.17953951  0.56801178  0.39509038    -0.64240
N611        N  0.15725955  0.63067554  0.38694162    -0.06770
N612        N  0.19723647  0.63135254  0.37990496    -0.63830
N613        N  0.09027671  0.63844733  0.43898771    -0.05660
N614        N  0.06846020  0.64382346  0.46075859    -0.64520
Mn615      Mn  0.11372142  0.68416207  0.38807471     1.10660
C616        C  0.06713571  0.68618520  0.46448833     0.98450
C617        C  0.21103677  0.59208680  0.38487049     0.98530
N618        N  0.03159493  0.53410430  0.36982703    -0.06780
N619        N  0.02025537  0.49699303  0.36038429    -0.62150
N620        N  0.02047563  0.57274664  0.42929140    -0.06090
N621        N  0.01409823  0.55778454  0.45257934    -0.58880
N622        N  0.98539522  0.57228652  0.41587789    -0.07400
N623        N  0.95436966  0.55597675  0.42999605    -0.61720
N624        N  0.06562817  0.53120617  0.38431166    -0.06390
N625        N  0.07718661  0.49131159  0.38510554    -0.58900
Mn626      Mn  0.98736181  0.58557757  0.37361035     1.20190
Mn627      Mn  0.08230700  0.58301279  0.41236844     1.10090
Cl628      Cl  0.05124587  0.63385847  0.38067276    -0.86870
C629        C  0.04871617  0.47050347  0.36985075     0.95460
C630        C  0.97281855  0.54812119  0.45308691     0.95260
N631        N  0.58910000  0.07378785  0.34519154    -0.07030
N632        N  0.62640325  0.06380886  0.33506894    -0.59150
N633        N  0.60184963  0.15990432  0.37391775    -0.06710
N634        N  0.63689888  0.18301417  0.37155490    -0.61270
N635        N  0.60805919  0.12944778  0.39056517    -0.06300
N636        N  0.64678270  0.13154071  0.39965855    -0.59120
N637        N  0.57107141  0.10140136  0.33012060    -0.05980
N638        N  0.59368950  0.10789710  0.30927240    -0.61630
C639        C  0.62830686  0.08510504  0.31240343     0.95150
C640        C  0.66462457  0.16527009  0.38805349     0.94930
N641        N  0.48149492  0.21483339  0.37569061    -0.07210
N642        N  0.47551031  0.25065861  0.38847398    -0.59720
N643        N  0.48842750  0.15092453  0.32144104    -0.05330
N644        N  0.48528750  0.13519404  0.29740647    -0.60980
N645        N  0.45061502  0.15468223  0.33158435    -0.07240
N646        N  0.42157996  0.14205855  0.31504160    -0.59990
N647        N  0.51987572  0.21339780  0.36631507    -0.04970
N648        N  0.54105396  0.24799413  0.37261959    -0.61060
Mn649      Mn  0.54500040  0.15727063  0.34740390     1.18440
C650        C  0.51304665  0.27088242  0.38642890     0.97230
C651        C  0.44306282  0.13002660  0.29372220     0.97900
N652        N  0.55130625  0.06901874  0.42970466    -0.07260
N653        N  0.57044732  0.05385990  0.45041163    -0.63570
N654        N  0.49174319  0.01190016  0.39105652    -0.06060
N655        N  0.48039295  0.97130683  0.39183844    -0.64240
N656        N  0.53116972  0.01475608  0.38287398    -0.06770
N657        N  0.54679076  0.97724654  0.37798791    -0.63830
N658        N  0.51161658  0.07504950  0.43564695    -0.05660
N659        N  0.50398371  0.06836128  0.46005272    -0.64520
Mn660      Mn  0.57026995  0.07121551  0.38749109     1.10660
C661        C  0.54023506  0.05488474  0.46940796     0.98450
C662        C  0.51519732  0.95020968  0.38338346     0.98530
N663        N  0.39894702  0.10393838  0.36996696    -0.06780
N664        N  0.36109848  0.10242003  0.35975437    -0.62150
N665        N  0.43616891  0.12824731  0.42847689    -0.06090
N666        N  0.43459575  0.13752785  0.45357537    -0.58880
N667        N  0.42971517  0.16230417  0.41501855    -0.07400
N668        N  0.42326916  0.19523652  0.43059214    -0.61720
N669        N  0.40619179  0.06959579  0.38302390    -0.06390
N670        N  0.37235110  0.04465808  0.38273657    -0.58900
Mn671      Mn  0.43948887  0.16024460  0.37289259     1.20190
Mn672      Mn  0.46067963  0.06985948  0.40935222     1.10090
Cl673      Cl  0.50397963  0.11431210  0.37919357    -0.86870
C674        C  0.34481170  0.06519591  0.36751130     0.95460
C675        C  0.42608605  0.17938613  0.45473788     0.95260
N676        N  0.48295174  0.63763225  0.33970477    -0.07030
N677        N  0.45862378  0.65562490  0.32224577    -0.59150
N678        N  0.45586213  0.56011947  0.37596781    -0.06710
N679        N  0.41922544  0.53949477  0.37348941    -0.61270
N680        N  0.44951320  0.59646409  0.38811609    -0.06300
N681        N  0.40954882  0.60063951  0.39431790    -0.59120
N682        N  0.49716162  0.60185132  0.32997884    -0.05980
N683        N  0.48486688  0.59551862  0.30615383    -0.61630
C684        C  0.46126856  0.62895893  0.30128955     0.95150
C685        C  0.39069789  0.56487018  0.38565487     0.94930
N686        N  0.57590615  0.50093270  0.38685405    -0.07210
N687        N  0.58273247  0.46560324  0.39924065    -0.59720
N688        N  0.57484348  0.54308833  0.32867933    -0.05330
N689        N  0.57924755  0.53503232  0.30348782    -0.60980
N690        N  0.61211767  0.54560799  0.33954018    -0.07240
N691        N  0.64228302  0.53880468  0.32245995    -0.59990
N692        N  0.53746210  0.50091487  0.37762384    -0.04970
N693        N  0.51721343  0.46594391  0.38350936    -0.61060
Mn694      Mn  0.51611606  0.55065690  0.35293612     1.18440
C695        C  0.54561964  0.44439488  0.39719361     0.97230
C696        C  0.62164602  0.53224343  0.29995104     0.97900
N697        N  0.50015367  0.66244165  0.42514782    -0.07260
N698        N  0.47506176  0.68053052  0.44266851    -0.63570
N699        N  0.56962688  0.70849588  0.38885440    -0.06060
N700        N  0.58024402  0.74915968  0.39104482    -0.64240
N701        N  0.53273843  0.70494141  0.37721767    -0.06770
N702        N  0.51825447  0.74226635  0.37131317    -0.63830
N703        N  0.53814480  0.65912188  0.43489947    -0.05660
N704        N  0.53942707  0.67294299  0.45892097    -0.64520
Mn705      Mn  0.49098598  0.65073465  0.38248803     1.10660
C706        C  0.50017276  0.68571601  0.46384037     0.98450
C707        C  0.54791754  0.76977893  0.37973677     0.98530
N708        N  0.66023251  0.61060634  0.37596328    -0.06780
N709        N  0.69821327  0.61200974  0.36557524    -0.62150
N710        N  0.61277470  0.59698177  0.43455795    -0.06090
N711        N  0.60647532  0.58836206  0.45940953    -0.58880
N712        N  0.62414393  0.56243346  0.42213693    -0.07400
N713        N  0.62660538  0.53046821  0.43787352    -0.61720
N714        N  0.65156145  0.64683962  0.38749778    -0.06390
N715        N  0.68380981  0.67345809  0.38533592    -0.58900
Mn716      Mn  0.61919628  0.55473187  0.38087363     1.20190
Mn717      Mn  0.59413447  0.65352920  0.41166995     1.10090
Cl718      Cl  0.55508681  0.60297267  0.38173456    -0.86870
C719        C  0.71255761  0.65150480  0.37127027     0.95460
C720        C  0.61588808  0.54660899  0.46113293     0.95260
C721        C  0.56363806  0.88893742  0.38666499    -0.22210
C722        C  0.52222197  0.90381085  0.38378056    -0.10260
C723        C  0.48952144  0.87419312  0.38022879     0.28600
C724        C  0.49842019  0.83089401  0.37878029    -0.22210
C725        C  0.53994907  0.81605076  0.38138935    -0.10270
C726        C  0.57241977  0.84566080  0.38576871     0.28610
F727        F  0.61274154  0.83297920  0.38858436    -0.20790
H728        H  0.58956438  0.91099943  0.38963967     0.16970
H729        H  0.47251781  0.80885850  0.37567929     0.16980
F730        F  0.44927784  0.88702866  0.37729416    -0.20780
C731        C  0.56387637  0.32854481  0.39652706    -0.22210
C732        C  0.52208007  0.31363017  0.39632988    -0.10260
C733        C  0.48932791  0.34134235  0.40262112     0.28600
C734        C  0.49803842  0.38428541  0.40576755    -0.22210
C735        C  0.53932712  0.39977509  0.40297192    -0.10270
C736        C  0.57261723  0.37143422  0.39996706     0.28610
F737        F  0.61294435  0.38541115  0.39731753    -0.20790
H738        H  0.58964458  0.30743428  0.39228338     0.16970
H739        H  0.47210027  0.40583558  0.40836809     0.16980
F740        F  0.44863168  0.32782354  0.40327088    -0.20780
C741        C  0.77542215  0.69706416  0.38293580    -0.22210
C742        C  0.75704145  0.66502308  0.36724587    -0.10260
C743        C  0.78298725  0.64223946  0.34999485     0.28600
C744        C  0.82653908  0.64866586  0.35025137    -0.22210
C745        C  0.84520544  0.67790857  0.36754274    -0.10270
C746        C  0.81931951  0.70332583  0.38321947     0.28610
F747        F  0.83660391  0.73149040  0.40032497    -0.20790
H748        H  0.75620330  0.71516658  0.39633862     0.16970
H749        H  0.84608460  0.62860738  0.33812593     0.16980
F750        F  0.76664216  0.61187889  0.33394752    -0.20780
C751        C  0.27281183  0.54442720  0.39447777    -0.22210
C752        C  0.25617844  0.57957142  0.38175497    -0.10260
C753        C  0.28411320  0.60513844  0.36742143     0.28600
C754        C  0.32736181  0.59746462  0.36728186    -0.22210
C755        C  0.34438031  0.56413311  0.38123392    -0.10270
C756        C  0.31659560  0.53682924  0.39433128     0.28610
F757        F  0.33191994  0.50463405  0.40830720    -0.20790
H758        H  0.25223603  0.52408379  0.40561110     0.16970
H759        H  0.34807865  0.61908847  0.35713976     0.16980
F760        F  0.26999477  0.63877451  0.35420322    -0.20780
C761        C  0.77871155  0.19560141  0.37029814    -0.22210
C762        C  0.80111366  0.17568944  0.39009447    -0.10260
C763        C  0.77779046  0.15742014  0.41039160     0.28600
C764        C  0.73373897  0.15670292  0.41005677    -0.22210
C765        C  0.71110440  0.17413991  0.38959411    -0.10270
C766        C  0.73415269  0.19490097  0.37000005     0.28610
F767        F  0.71393916  0.21237144  0.34982605    -0.20790
H768        H  0.79562100  0.20983283  0.35435877     0.16970
H769        H  0.71721766  0.14093699  0.42560492     0.16980
F770        F  0.79757092  0.13879322  0.43036024    -0.20780
C771        C  0.27722517  0.04037639  0.38740509    -0.22210
C772        C  0.29906953  0.05650334  0.36596685    -0.10260
C773        C  0.27601916  0.07340351  0.34548521     0.28600
C774        C  0.23258389  0.07846110  0.34773131    -0.22210
C775        C  0.21121191  0.06628754  0.37025794    -0.10270
C776        C  0.23350700  0.04517565  0.38959533     0.28610
F777        F  0.21398776  0.03302353  0.41172753    -0.20790
H778        H  0.29432464  0.02753420  0.40350282     0.16970
H779        H  0.21597734  0.09406842  0.33239807     0.16980
F780        F  0.29596471  0.08795200  0.32406308    -0.20780
C781        C  0.99138506  0.90005067  0.38485347    -0.22210
C782        C  0.02719880  0.92609672  0.38624511    -0.10260
C783        C  0.06679674  0.90880255  0.39120117     0.28600
C784        C  0.07018137  0.86581066  0.39514145    -0.22210
C785        C  0.03432745  0.83981830  0.39372361    -0.10270
C786        C  0.99480627  0.85711435  0.38865394     0.28610
F787        F  0.95957040  0.83248182  0.38708731    -0.20790
H788        H  0.96055342  0.91296426  0.38141215     0.16970
H789        H  0.10102527  0.85268296  0.39823202     0.16980
F790        F  0.10221140  0.93324990  0.39198085    -0.20780
C791        C  0.99416097  0.36385932  0.36319858    -0.22210
C792        C  0.02192106  0.33841648  0.37662474    -0.10260
C793        C  0.05911056  0.35664197  0.38716006     0.28600
C794        C  0.06832479  0.39920444  0.38392922    -0.22210
C795        C  0.04076085  0.42468259  0.37044484    -0.10270
C796        C  0.00332857  0.40668651  0.36010119     0.28610
F797        F  0.97508803  0.43037079  0.34734469    -0.20790
H798        H  0.96565606  0.35053942  0.35480329     0.16970
H799        H  0.09689271  0.41233876  0.39236088     0.16980
F800        F  0.08711017  0.33347806  0.40049098    -0.20780
C801        C  0.49793263  0.95854067  0.49856738    -0.22210
C802        C  0.48287734  0.97401746  0.52252696    -0.10260
C803        C  0.49400150  0.01543968  0.53024174     0.28600
C804        C  0.51924171  0.04062342  0.51416191    -0.22210
C805        C  0.53476269  0.02480818  0.49037461    -0.10270
C806        C  0.52404491  0.98317327  0.48291139     0.28610
F807        F  0.53579850  0.96755797  0.45933627    -0.20790
H808        H  0.49150409  0.92606980  0.49270549     0.16970
H809        H  0.52500932  0.07334264  0.51967474     0.16980
F810        F  0.48251155  0.03071097  0.55392090    -0.20780
C811        C  0.51511397  0.78255313  0.50352513    -0.22210
C812        C  0.52880619  0.76428014  0.52660338    -0.10260
C813        C  0.52042030  0.72100788  0.53034812     0.28600
C814        C  0.50269204  0.69608296  0.51057771    -0.22210
C815        C  0.49334415  0.71335760  0.48652930    -0.10270
C816        C  0.49761932  0.75728000  0.48356518     0.28610
F817        F  0.49002943  0.77481558  0.46027214    -0.20790
H818        H  0.52029977  0.81590252  0.50028315     0.16970
H819        H  0.50073938  0.66220374  0.51306221     0.16980
F820        F  0.53175933  0.70190318  0.55247238    -0.20780
C821        C  0.60891337  0.44852192  0.50251541    -0.22210
C822        C  0.58451730  0.46258638  0.52343933    -0.10260
C823        C  0.57084808  0.50476013  0.52406381     0.28600
C824        C  0.58197885  0.53251078  0.50425085    -0.22210
C825        C  0.60700854  0.51873117  0.48343313    -0.10270
C826        C  0.62036696  0.47622903  0.48278989     0.28610
F827        F  0.64508496  0.46134101  0.46325857    -0.20790
H828        H  0.62045799  0.41649621  0.50191849     0.16970
H829        H  0.57047048  0.56453799  0.50501077     0.16980
F830        F  0.54606402  0.51893248  0.54372326    -0.20780
C831        C  0.43956046  0.21443509  0.52553910    -0.22210
C832        C  0.43644446  0.25848353  0.52392349    -0.10260
C833        C  0.42702269  0.27603845  0.49988308     0.28600
C834        C  0.42178079  0.25000568  0.47777092    -0.22210
C835        C  0.42660956  0.20591870  0.47903718    -0.10270
C836        C  0.43486710  0.18834093  0.50341209     0.28610
F837        F  0.44039735  0.14617552  0.50577925    -0.20790
H838        H  0.44785012  0.20035468  0.54376526     0.16970
H839        H  0.41549018  0.26462561  0.45941047     0.16980
F840        F  0.42433745  0.31853087  0.49761474    -0.20780
C841        C  0.45832117  0.59002234  0.62751912    -0.22210
C842        C  0.49111007  0.56844424  0.61495723    -0.10260
C843        C  0.51931094  0.59078680  0.59910927     0.28600
C844        C  0.51812029  0.63442295  0.59869943    -0.22210
C845        C  0.48884803  0.65648106  0.61390770    -0.10270
C846        C  0.45706493  0.63403312  0.62700771     0.28610
F847        F  0.42738162  0.65439794  0.64126812    -0.20790
H848        H  0.43574028  0.57324056  0.63942098     0.16970
H849        H  0.54264828  0.65091854  0.58820317     0.16980
F850        F  0.55066697  0.57109555  0.58593460    -0.20780
C851        C  0.57180385  0.09248943  0.61943615    -0.22210
C852        C  0.54092387  0.06974495  0.63309196    -0.10260
C853        C  0.51088096  0.09229189  0.64777372     0.28600
C854        C  0.51028589  0.13627628  0.64743051    -0.22210
C855        C  0.53946264  0.15903843  0.63255049    -0.10270
C856        C  0.57121186  0.13677771  0.61914900     0.28610
F857        F  0.60055524  0.15749528  0.60484743    -0.20790
H858        H  0.59534985  0.07599480  0.60807860     0.16970
H859        H  0.48583288  0.15246780  0.65820335     0.16980
F860        F  0.48084601  0.07196874  0.66178644    -0.20780
C861        C  0.97319558  0.99056321  0.48833409    -0.22210
C862        C  0.96572521  0.03347403  0.49384319    -0.10260
C863        C  0.97751987  0.04999100  0.51821961     0.28600
C864        C  0.99966418  0.02536663  0.53565365    -0.22210
C865        C  0.01075448  0.98360614  0.52922872    -0.10270
C866        C  0.99550000  0.96574413  0.50581934     0.28610
F867        F  0.00452477  0.92530368  0.49896467    -0.20790
H868        H  0.96578980  0.97746028  0.46934337     0.16970
H869        H  0.00991845  0.03985718  0.55374867     0.16980
F870        F  0.97179088  0.09151915  0.52396215    -0.20780
C871        C  0.01818927  0.74557224  0.47471773    -0.22210
C872        C  0.03738884  0.70811287  0.48251948    -0.10260
C873        C  0.02791216  0.69281706  0.50732545     0.28600
C874        C  0.00279812  0.71660104  0.52462714    -0.22210
C875        C  0.98646775  0.75578928  0.51746199    -0.10270
C876        C  0.99293683  0.76898404  0.49188070     0.28610
F877        F  0.97813241  0.80679620  0.48426990    -0.20790
H878        H  0.02393433  0.75764122  0.45553500     0.16970
H879        H  0.99966053  0.70658866  0.54425771     0.16980
F880        F  0.04583896  0.65689646  0.51567729    -0.20780
C881        C  0.74855214  0.93540116  0.62700449    -0.22210
C882        C  0.72707619  0.89786217  0.62034374    -0.10260
C883        C  0.74917090  0.86363999  0.60977379     0.28600
C884        C  0.79242575  0.86605307  0.60711846    -0.22210
C885        C  0.81476902  0.90216328  0.61556144    -0.10270
C886        C  0.79252366  0.93748268  0.62492029     0.28610
F887        F  0.81315229  0.97330155  0.63260214    -0.20790
H888        H  0.73153397  0.96224581  0.63472919     0.16970
H889        H  0.80851501  0.83850700  0.59957193     0.16980
F890        F  0.72893512  0.82746854  0.60220649    -0.20780
C891        C  0.28359921  0.80195920  0.62261028    -0.22210
C892        C  0.31111196  0.83449665  0.63054919    -0.10260
C893        C  0.29454057  0.87293686  0.63974636     0.28600
C894        C  0.25138903  0.87963464  0.63962630    -0.22210
C895        C  0.22383965  0.84862358  0.62969845    -0.10270
C896        C  0.24006639  0.80895544  0.62204876     0.28610
F897        F  0.21422887  0.77766621  0.61296088    -0.20790
H898        H  0.29589295  0.77228749  0.61534375     0.16970
H899        H  0.23987186  0.91024181  0.64580000     0.16980
F900        F  0.32042771  0.90524908  0.64729957    -0.20780
C901        C  0.93659019  0.51450349  0.51881452    -0.22210
C902        C  0.95182651  0.47296535  0.51910031    -0.10260
C903        C  0.96652525  0.45467574  0.49576063     0.28600
C904        C  0.96849504  0.47846230  0.47322247    -0.22210
C905        C  0.95579291  0.52069860  0.47339244    -0.10270
C906        C  0.93867196  0.53827793  0.49615641     0.28610
F907        F  0.92694131  0.57931997  0.49697004    -0.20790
H908        H  0.92481448  0.52926524  0.53643063     0.16970
H909        H  0.98304628  0.46485963  0.45604009     0.16980
F910        F  0.98217010  0.41500411  0.49506682    -0.20780
C911        C  0.08205282  0.30277399  0.49769432    -0.22210
C912        C  0.09523471  0.28886002  0.52188385    -0.10260
C913        C  0.11257435  0.24845591  0.52400012     0.28600
C914        C  0.11315188  0.22110234  0.50244403    -0.22210
C915        C  0.09751196  0.23431016  0.47861779    -0.10270
C916        C  0.08337870  0.27592798  0.47613872     0.28610
F917        F  0.06720737  0.28952021  0.45349565    -0.20790
H918        H  0.06802672  0.33357837  0.49587065     0.16970
H919        H  0.12442564  0.18923126  0.50454379     0.16980
F920        F  0.12510541  0.23400835  0.54728584    -0.20780
C921        C  0.08842742  0.65499009  0.63287972    -0.22210
C922        C  0.06105532  0.67657127  0.61672274    -0.10260
C923        C  0.03217627  0.65380711  0.60133132     0.28600
C924        C  0.02934189  0.61018207  0.60282123    -0.22210
C925        C  0.05439774  0.58842428  0.62028157    -0.10270
C926        C  0.08517832  0.61092775  0.63472624     0.28610
F927        F  0.10985137  0.59099519  0.65192976    -0.20790
H928        H  0.11021401  0.67238954  0.64526549     0.16970
H929        H  0.00554476  0.59373376  0.59139679     0.16980
F930        F  0.00415042  0.67416295  0.58645033    -0.20780
C931        C  0.95672999  0.10823334  0.61142234    -0.22210
C932        C  0.97862456  0.08771155  0.63094590    -0.10260
C933        C  0.99877263  0.11151205  0.65048243     0.28600
C934        C  0.99908507  0.15544400  0.64969916    -0.22210
C935        C  0.97929163  0.17633843  0.62942493    -0.10270
C936        C  0.95669646  0.15246332  0.61072093     0.28610
F937        F  0.93748818  0.17154292  0.59071697    -0.20790
H938        H  0.94157316  0.09005072  0.59604607     0.16970
H939        H  0.01649847  0.17313167  0.66436515     0.16980
F940        F  0.02036191  0.09213003  0.66944474    -0.20780
C941        C  0.74796387  0.29930264  0.62789269    -0.22210
C942        C  0.72356911  0.33403780  0.62133159    -0.10260
C943        C  0.74321623  0.37237151  0.61468662     0.28600
C944        C  0.78622635  0.37709548  0.61667822    -0.22210
C945        C  0.81070551  0.34346557  0.62449288    -0.10270
C946        C  0.79189119  0.30386844  0.62915750     0.28610
F947        F  0.81563543  0.27061174  0.63602335    -0.20790
H948        H  0.73306706  0.26964962  0.63302330     0.16970
H949        H  0.80049549  0.40729069  0.61198356     0.16980
F950        F  0.72056470  0.40595485  0.60694441    -0.20780
C951        C  0.24752557  0.44739455  0.63332907    -0.22210
C952        C  0.22394205  0.40943008  0.63301738    -0.10260
C953        C  0.24527063  0.37087799  0.63381560     0.28600
C954        C  0.28875961  0.37009188  0.63346139    -0.22210
C955        C  0.31271119  0.40745792  0.63248331    -0.10270
C956        C  0.29194724  0.44646685  0.63306719     0.28610
F957        F  0.31431150  0.48319886  0.63229248    -0.20790
H958        H  0.23168090  0.47742612  0.63296653     0.16970
H959        H  0.30378820  0.33960982  0.63390402     0.16980
F960        F  0.22415132  0.33341218  0.63515868    -0.20780
C961        C  0.61692691  0.89153618  0.76910974    -0.22210
C962        C  0.66027061  0.89927411  0.76585639    -0.10260
C963        C  0.67818596  0.89318055  0.74122889     0.28600
C964        C  0.65439413  0.87524859  0.72107650    -0.22210
C965        C  0.61218600  0.86305738  0.72506397    -0.10270
C966        C  0.59292177  0.87352538  0.74889777     0.28610
F967        F  0.55199146  0.86323163  0.75344395    -0.20790
H968        H  0.60277667  0.89471650  0.78816619     0.16970
H969        H  0.66985543  0.86870876  0.70273463     0.16980
F970        F  0.72012377  0.89950783  0.73761725    -0.20780
C971        C  0.83858860  0.76950936  0.73846557    -0.22210
C972        C  0.84885481  0.78386299  0.76360777    -0.10260
C973        C  0.88691014  0.80644173  0.76734438     0.28600
C974        C  0.91382132  0.81459040  0.74657961    -0.22210
C975        C  0.90415667  0.80008360  0.72148803    -0.10270
C976        C  0.86621847  0.77720780  0.71751972     0.28610
F977        F  0.85509444  0.76377619  0.69337836    -0.20790
H978        H  0.80960184  0.75193465  0.73512901     0.16970
H979        H  0.94236502  0.83283509  0.75013712     0.16980
F980        F  0.89774733  0.82185197  0.79112679    -0.20780
C981        C  0.68775271  0.35322704  0.74574436    -0.22210
C982        C  0.66665249  0.33265747  0.76601295    -0.10260
C983        C  0.62230860  0.33516431  0.76716225     0.28600
C984        C  0.60002407  0.35732825  0.74843495    -0.22210
C985        C  0.62108923  0.37742442  0.72798923    -0.10270
C986        C  0.66542434  0.37522235  0.72694003     0.28610
F987        F  0.68743490  0.39429531  0.70773323    -0.20790
H988        H  0.72175508  0.35239354  0.74443244     0.16970
H989        H  0.56602288  0.35818742  0.74976732     0.16980
F990        F  0.60019503  0.31648306  0.78647084    -0.20780
C991        C  0.87209883  0.45382023  0.73128708    -0.22210
C992        C  0.91484240  0.44280641  0.73265497    -0.10260
C993        C  0.93095091  0.42990499  0.75658323     0.28600
C994        C  0.90418364  0.42574428  0.77806001    -0.22210
C995        C  0.86113738  0.43459216  0.77617438    -0.10270
C996        C  0.84542023  0.44956545  0.75279340     0.28610
F997        F  0.80379314  0.45756603  0.75030558    -0.20790
H998        H  0.85881639  0.46408582  0.71320944     0.16970
H999        H  0.91656501  0.41306684  0.79579111     0.16980
F1000       F  0.97179751  0.41860157  0.75886971    -0.20780
C1001       C  0.72789087  0.56786777  0.90009792    -0.22210
C1002       C  0.69831742  0.54860002  0.88345126    -0.10260
C1003       C  0.67184017  0.57405695  0.86887918     0.28600
C1004       C  0.67743386  0.61817419  0.86946100    -0.22210
C1005       C  0.70980938  0.63716723  0.88436119    -0.10270
C1006       C  0.73362370  0.61163008  0.90066336     0.28610
F1007       F  0.76435300  0.62858260  0.91596766    -0.20790
H1008       H  0.74867233  0.54865495  0.91142365     0.16970
H1009       H  0.65854016  0.63708624  0.85681298     0.16980
F1010       F  0.64320339  0.55618273  0.85249032    -0.20780
C1011       C  0.84144790  0.07524596  0.85320714    -0.22210
C1012       C  0.81442109  0.04892294  0.86752814    -0.10260
C1013       C  0.78377540  0.06763557  0.88353851     0.28600
C1014       C  0.77858899  0.11132280  0.88412474    -0.22210
C1015       C  0.80353676  0.13781741  0.86863190    -0.10270
C1016       C  0.83623454  0.11949621  0.85380464     0.28610
F1017       F  0.86130838  0.14383776  0.83866630    -0.20790
H1018       H  0.86493347  0.06147042  0.84049741     0.16970
H1019       H  0.75352124  0.12426866  0.89598538     0.16980
F1020       F  0.75702678  0.04325568  0.89759752    -0.20780
C1021       C  0.18313135  0.93755765  0.75062362    -0.22210
C1022       C  0.16527137  0.94785887  0.77477587    -0.10260
C1023       C  0.12117812  0.95266393  0.77641487     0.28600
C1024       C  0.09594511  0.94755970  0.75425810    -0.22210
C1025       C  0.11410695  0.93800583  0.73006680    -0.10270
C1026       C  0.15805558  0.93269322  0.72856304     0.28610
F1027       F  0.17698430  0.92212271  0.70577740    -0.20790
H1028       H  0.21673699  0.93300912  0.74874788     0.16970
H1029       H  0.06229302  0.95192810  0.75593400     0.16980
F1030       F  0.10230328  0.96240000  0.79933685    -0.20780
C1031       C  0.31881632  0.85812240  0.73545832    -0.22210
C1032       C  0.33409772  0.83507774  0.75658371    -0.10260
C1033       C  0.37762865  0.83253910  0.75992277     0.28600
C1034       C  0.40480812  0.85532500  0.74407744    -0.22210
C1035       C  0.38991982  0.87947540  0.72335562    -0.10270
C1036       C  0.34642151  0.87993700  0.71885171     0.28610
F1037       F  0.33053722  0.90188764  0.69893597    -0.20790
H1038       H  0.28523098  0.86217089  0.73319699     0.16970
H1039       H  0.43821037  0.85370272  0.74802928     0.16980
F1040       F  0.39380821  0.81258790  0.78064084    -0.20780
C1041       C  0.53069553  0.81817314  0.86992936    -0.22210
C1042       C  0.55816272  0.85290535  0.87221268    -0.10260
C1043       C  0.54095246  0.89392363  0.87224467     0.28600
C1044       C  0.49729355  0.89964784  0.87011214    -0.22210
C1045       C  0.46977980  0.86477176  0.86837077    -0.10270
C1046       C  0.48714990  0.82382534  0.86827050     0.28610
F1047       F  0.46217171  0.78886105  0.86613092    -0.20790
H1048       H  0.54294399  0.78642140  0.86962578     0.16970
H1049       H  0.48498230  0.93136350  0.87016365     0.16980
F1050       F  0.56628624  0.92869890  0.87373903    -0.20780
C1051       C  0.00112597  0.81525574  0.85471327    -0.22210
C1052       C  0.97604966  0.84897856  0.84738668    -0.10260
C1053       C  0.99460155  0.88857147  0.84277030     0.28600
C1054       C  0.03717203  0.89529908  0.84788820    -0.22210
C1055       C  0.06130333  0.86278127  0.85805779    -0.10270
C1056       C  0.04348027  0.82208651  0.86031886     0.28610
F1057       F  0.06600126  0.78954011  0.86956946    -0.20790
H1058       H  0.98717277  0.78458214  0.85850720     0.16970
H1059       H  0.05047706  0.92664598  0.84549353     0.16980
F1060       F  0.97090581  0.92142230  0.83512368    -0.20780
C1061       C  0.10461041  0.30197037  0.77882901    -0.22210
C1062       C  0.14555582  0.28620415  0.77656398    -0.10260
C1063       C  0.16144017  0.27503806  0.75197711     0.28600
C1064       C  0.13757010  0.28205846  0.72989743    -0.22210
C1065       C  0.09828561  0.30145746  0.73207080    -0.10270
C1066       C  0.08132422  0.31025878  0.75666803     0.28610
F1067       F  0.04321327  0.32878372  0.75916516    -0.20790
H1068       H  0.09188327  0.31087889  0.79761038     0.16970
H1069       H  0.15122215  0.27543431  0.71101916     0.16980
F1070       F  0.20083925  0.25946609  0.74919936    -0.20780
C1071       C  0.37839755  0.39472457  0.76619646    -0.22210
C1072       C  0.33661708  0.40061399  0.75868892    -0.10260
C1073       C  0.32277861  0.38167870  0.73519198     0.28600
C1074       C  0.35021170  0.35740640  0.71970399    -0.22210
C1075       C  0.39169211  0.35059574  0.72771077    -0.10270
C1076       C  0.40535587  0.36967288  0.75120692     0.28610
F1077       F  0.44539942  0.36445032  0.75956764    -0.20790
H1078       H  0.38930425  0.40672681  0.78481217     0.16970
H1079       H  0.33931329  0.34478451  0.70125030     0.16980
F1080       F  0.28195245  0.38492891  0.72795296    -0.20780
C1081       C  0.47064329  0.32103365  0.85471299    -0.22210
C1082       C  0.45289140  0.36011379  0.86122825    -0.10260
C1083       C  0.47897045  0.39548576  0.86600176     0.28600
C1084       C  0.52222938  0.39146949  0.86448686    -0.22210
C1085       C  0.54002100  0.35225432  0.85851127    -0.10270
C1086       C  0.51404198  0.31697741  0.85337212     0.28610
F1087       F  0.53034826  0.27832433  0.84822702    -0.20790
H1088       H  0.45096295  0.29345296  0.85092408     0.16970
H1089       H  0.54188621  0.41896730  0.86859351     0.16980
F1090       F  0.46296488  0.43392680  0.87213917    -0.20780
C1091       C  0.02359122  0.32819999  0.86927846    -0.22210
C1092       C  0.04133643  0.36553962  0.88002149    -0.10260
C1093       C  0.01492418  0.39573105  0.89136491     0.28600
C1094       C  0.97151289  0.38829034  0.89200304    -0.22210
C1095       C  0.95394620  0.35080880  0.88125446    -0.10270
C1096       C  0.98048203  0.32071177  0.86999441     0.28610
F1097       F  0.96497079  0.28410693  0.85956002    -0.20790
H1098       H  0.04315181  0.30416782  0.86042337     0.16970
H1099       H  0.95160319  0.41226398  0.90059862     0.16980
F1100       F  0.03083376  0.43210516  0.90185901    -0.20780
C1101       C  0.21293823  0.60307231  0.84570542    -0.22210
C1102       C  0.20096557  0.58125490  0.86808725    -0.10260
C1103       C  0.18693164  0.60530123  0.88969661     0.28600
C1104       C  0.18702004  0.65001500  0.88908298    -0.22210
C1105       C  0.20113816  0.67166847  0.86697561    -0.10270
C1106       C  0.21291195  0.64733547  0.84505074     0.28610
F1107       F  0.22578846  0.66642757  0.82300487    -0.20790
H1108       H  0.22365588  0.58571430  0.82871373     0.16970
H1109       H  0.17829939  0.66766752  0.90639177     0.16980
F1110       F  0.17599625  0.58589333  0.91199888    -0.20780
C1111       C  0.33729090  0.15066991  0.86538084    -0.22210
C1112       C  0.31492640  0.17204357  0.88506620    -0.10260
C1113       C  0.30174400  0.14964447  0.90692746     0.28600
C1114       C  0.30606010  0.10596814  0.90755169    -0.22210
C1115       C  0.32337503  0.08381550  0.88637124    -0.10270
C1116       C  0.34147340  0.10666899  0.86594452     0.28610
F1117       F  0.35873394  0.08635360  0.84520774    -0.20790
H1118       H  0.34817761  0.16736853  0.84844811     0.16970
H1119       H  0.29253682  0.08903631  0.92370023     0.16980
F1120       F  0.28195507  0.16947625  0.92690423    -0.20780
C1121       C  0.72366756  0.47907572  0.01715671    -0.22210
C1122       C  0.73181774  0.52225631  0.01442815    -0.10260
C1123       C  0.75233804  0.53639047  0.99191100     0.28600
C1124       C  0.76658117  0.50722915  0.97319129    -0.22210
C1125       C  0.76085938  0.46377205  0.97700452    -0.10270
C1126       C  0.73875066  0.45006552  0.99903301     0.28610
F1127       F  0.73276590  0.40825328  0.00344259    -0.20790
H1128       H  0.70977648  0.46741450  0.03491157     0.16970
H1129       H  0.78207513  0.51852051  0.95587397     0.16980
F1130       F  0.76222094  0.57792570  0.98933009    -0.20780
C1131       C  0.85634639  0.75342793  0.02044342    -0.22210
C1132       C  0.86408027  0.70969999  0.02036298    -0.10260
C1133       C  0.87116493  0.68907940  0.99647323     0.28600
C1134       C  0.86713469  0.71115946  0.97322445    -0.22210
C1135       C  0.85641160  0.75428674  0.97327864    -0.10270
C1136       C  0.85279272  0.77560385  0.99727863     0.28610
F1137       F  0.84272373  0.81709811  0.99847131    -0.20790
H1138       H  0.85029180  0.77001585  0.03858413     0.16970
H1139       H  0.87062367  0.69391545  0.95506248     0.16980
F1140       F  0.87796017  0.64688438  0.99541888    -0.20780
C1141       C  0.64764700  0.53131066  0.22799543    -0.22210
C1142       C  0.69158021  0.52596385  0.22824082    -0.10260
C1143       C  0.71109451  0.51677827  0.25176902     0.28600
C1144       C  0.68749866  0.51657837  0.27481287    -0.22210
C1145       C  0.64401802  0.52518931  0.27484190    -0.10270
C1146       C  0.62395915  0.53063840  0.25095986     0.28610
F1147       F  0.58215478  0.53860391  0.24990677    -0.20790
H1148       H  0.63198571  0.53887638  0.21009443     0.16970
H1149       H  0.70380878  0.51179141  0.29287983     0.16980
F1150       F  0.75346952  0.51238621  0.25294986    -0.20780
C1151       C  0.91978429  0.67138918  0.23743316    -0.22210
C1152       C  0.87679776  0.66212191  0.23949987    -0.10260
C1153       C  0.86241946  0.63742019  0.26026098     0.28600
C1154       C  0.89118616  0.62016415  0.27760794    -0.22210
C1155       C  0.93457452  0.62690561  0.27412702    -0.10270
C1156       C  0.94844252  0.65319425  0.25398158     0.28610
F1157       F  0.99012979  0.66034555  0.24971377    -0.20790
H1158       H  0.93173316  0.68860644  0.22092914     0.16970
H1159       H  0.87964091  0.60135563  0.29350670     0.16980
F1160       F  0.82109652  0.62645432  0.26210851    -0.20780
C1161       C  0.76556350  0.03091156  0.99388883    -0.22210
C1162       C  0.78068052  0.01059311  0.01593952    -0.10260
C1163       C  0.78010378  0.96637838  0.01646219     0.28600
C1164       C  0.76480828  0.94290311  0.99549783    -0.22210
C1165       C  0.74997191  0.96273982  0.97331265    -0.10270
C1166       C  0.75058626  0.00709386  0.97250808     0.28610
F1167       F  0.73812095  0.02718566  0.95092334    -0.20790
H1168       H  0.76367090  0.06502115  0.99370218     0.16970
H1169       H  0.76589091  0.90874932  0.99621216     0.16980
F1170       F  0.79264323  0.94586878  0.03793170    -0.20780
C1171       C  0.68121574  0.19380590  0.97283046    -0.22210
C1172       C  0.67709147  0.23802185  0.97238222    -0.10260
C1173       C  0.67024048  0.25975800  0.99609977     0.28600
C1174       C  0.67035615  0.23816901  0.01956749    -0.22210
C1175       C  0.67627783  0.19441068  0.02007465    -0.10270
C1176       C  0.68092520  0.17217306  0.99642380     0.28610
F1177       F  0.68872360  0.13014232  0.99625911    -0.20790
H1178       H  0.68655089  0.17613604  0.95499935     0.16970
H1179       H  0.66767379  0.25603456  0.03757516     0.16980
F1180       F  0.66500782  0.30221188  0.99685952    -0.20780
C1181       C  0.75270203  0.84070838  0.10886266    -0.22210
C1182       C  0.75003723  0.81740545  0.13177143    -0.10260
C1183       C  0.73803398  0.83848610  0.15484514     0.28600
C1184       C  0.72869045  0.88163932  0.15479340    -0.22210
C1185       C  0.73072790  0.90475396  0.13180454    -0.10270
C1186       C  0.74321638  0.88381118  0.10880056     0.28610
F1187       F  0.74685230  0.90497309  0.08625789    -0.20790
H1188       H  0.76198262  0.82547105  0.09082344     0.16970
H1189       H  0.71919040  0.89687615  0.17278767     0.16980
F1190       F  0.73417297  0.81733060  0.17737639    -0.20780
C1191       C  0.83162634  0.37396479  0.10687160    -0.22210
C1192       C  0.80447792  0.40077958  0.12071549    -0.10260
C1193       C  0.77307276  0.38268619  0.13653382     0.28600
C1194       C  0.76949715  0.33870310  0.13883288    -0.22210
C1195       C  0.79688627  0.31191807  0.12522436    -0.10270
C1196       C  0.82798782  0.32991265  0.10913956     0.28610
F1197       F  0.85597601  0.30489182  0.09646883    -0.20790
H1198       H  0.85656755  0.38715841  0.09502777     0.16970
H1199       H  0.74491312  0.32551431  0.15095574     0.16980
F1200       F  0.74536506  0.40765290  0.14948054    -0.20780
C1201       C  0.68453785  0.07145163  0.27989930    -0.22210
C1202       C  0.66688032  0.09844281  0.29844580    -0.10260
C1203       C  0.67584073  0.14227232  0.29705901     0.28600
C1204       C  0.69668871  0.15909871  0.27547889    -0.22210
C1205       C  0.70931438  0.13242727  0.25515962    -0.10270
C1206       C  0.70559279  0.08820824  0.25844588     0.28610
F1207       F  0.71639790  0.06128292  0.23895421    -0.20790
H1208       H  0.67746330  0.03791897  0.28020921     0.16970
H1209       H  0.69843293  0.19302560  0.27333703     0.16980
F1210       F  0.65886219  0.16941686  0.31470556    -0.20780
C1211       C  0.91007334  0.04773789  0.26178701    -0.22210
C1212       C  0.88947005  0.04925349  0.28582248    -0.10260
C1213       C  0.84569320  0.04114669  0.28650421     0.28600
C1214       C  0.82275493  0.03538892  0.26324114    -0.22210
C1215       C  0.84325943  0.03728021  0.23903931    -0.10270
C1216       C  0.88753542  0.04129355  0.23877661     0.28610
F1217       F  0.90884021  0.04262598  0.21594224    -0.20790
H1218       H  0.94365153  0.05388857  0.26069980     0.16970
H1219       H  0.78875735  0.03317133  0.26412779     0.16980
F1220       F  0.82455024  0.04307423  0.30936820    -0.20780
C1221       C  0.35888940  0.55637765  0.98850609    -0.22210
C1222       C  0.35857575  0.53530851  0.01229117    -0.10260
C1223       C  0.35276914  0.49108600  0.01188964     0.28600
C1224       C  0.34276158  0.46933141  0.98886730    -0.22210
C1225       C  0.33946035  0.49069852  0.96545766    -0.10270
C1226       C  0.34967705  0.53417694  0.96517089     0.28610
F1227       F  0.34638933  0.55595971  0.94289519    -0.20790
H1228       H  0.36229730  0.59042622  0.98823973     0.16970
H1229       H  0.33517901  0.43592513  0.98959774     0.16980
F1230       F  0.35268828  0.46935731  0.03433555    -0.20780
C1231       C  0.26524569  0.67568892  0.98379572    -0.22210
C1232       C  0.24253225  0.69513936  0.00427922    -0.10260
C1233       C  0.23725453  0.73878452  0.00402613     0.28600
C1234       C  0.25854307  0.76286304  0.98614392    -0.22210
C1235       C  0.28131499  0.74450034  0.96538318    -0.10270
C1236       C  0.28339773  0.70018237  0.96384473     0.28610
F1237       F  0.30362162  0.68086321  0.94382150    -0.20790
H1238       H  0.27135150  0.64215857  0.98422844     0.16970
H1239       H  0.25624575  0.79679996  0.98859260     0.16980
F1240       F  0.21741844  0.75903107  0.02396990    -0.20780
C1241       C  0.56247213  0.64290162  0.14773486    -0.22210
C1242       C  0.58461113  0.63527172  0.12455645    -0.10260
C1243       C  0.56219852  0.63271204  0.10112540     0.28600
C1244       C  0.51881537  0.63934920  0.10091845    -0.22210
C1245       C  0.49692021  0.64858580  0.12398080    -0.10270
C1246       C  0.51911227  0.64957730  0.14753502     0.28610
F1247       F  0.49927721  0.65777486  0.17037065    -0.20790
H1248       H  0.57889490  0.64486021  0.16606516     0.16970
H1249       H  0.50245388  0.63783985  0.08256033     0.16980
F1250       F  0.58213087  0.62439884  0.07833667    -0.20780
C1251       C  0.02183052  0.59698329  0.15102435    -0.22210
C1252       C  0.99956037  0.59335318  0.12762984    -0.10260
C1253       C  0.02234157  0.59365735  0.10412490     0.28600
C1254       C  0.06618190  0.59685358  0.10415272    -0.22210
C1255       C  0.08856635  0.59983156  0.12746781    -0.10270
C1256       C  0.06589833  0.60032370  0.15102593     0.28610
F1257       F  0.08613968  0.60362063  0.17408350    -0.20790
H1258       H  0.00514907  0.59706556  0.16935942     0.16970
H1259       H  0.08267016  0.59639550  0.08575107     0.16980
F1260       F  0.00252690  0.59000120  0.08094125    -0.20780
C1261       C  0.16138247  0.71123318  0.23474970    -0.22210
C1262       C  0.20540470  0.70944527  0.23449146    -0.10260
C1263       C  0.22689602  0.70923687  0.25826975     0.28600
C1264       C  0.20425467  0.70859473  0.28179240    -0.22210
C1265       C  0.15989416  0.70812027  0.28194444    -0.10270
C1266       C  0.13881576  0.71097184  0.25804171     0.28610
F1267       F  0.09616201  0.71132792  0.25688113    -0.20790
H1268       H  0.14419090  0.71050341  0.21665801     0.16970
H1269       H  0.22139947  0.70652880  0.29979762     0.16980
F1270       F  0.26941781  0.70584730  0.25870436    -0.20780
C1271       C  0.36722091  0.60946378  0.25869395    -0.22210
C1272       C  0.38760706  0.59529778  0.23599225    -0.10260
C1273       C  0.43166840  0.59677235  0.23472634     0.28600
C1274       C  0.45488453  0.61290554  0.25540283    -0.22210
C1275       C  0.43495944  0.62711910  0.27814001    -0.10270
C1276       C  0.39082737  0.62487853  0.27987690     0.28610
F1277       F  0.37083692  0.63607222  0.30218416    -0.20790
H1278       H  0.33318100  0.61046751  0.25952891     0.16970
H1279       H  0.48894713  0.61280662  0.25405589     0.16980
F1280       F  0.45218270  0.58485524  0.21269645    -0.20780
C1281       C  0.29831520  0.97268899  0.02285603    -0.23330
C1282       C  0.30819357  0.01585923  0.02001590    -0.10260
C1283       C  0.30422905  0.03354756  0.99545218     0.28600
C1284       C  0.28712043  0.00988516  0.97489382    -0.22210
C1285       C  0.27326087  0.96791620  0.97823356    -0.10270
C1286       C  0.28115498  0.94871041  0.00209109     0.28610
F1287       F  0.26917920  0.90805613  0.00604226    -0.20790
H1288       H  0.29969546  0.95872026  0.04183080     0.16970
H1289       H  0.28249379  0.02547593  0.95664526     0.16980
F1290       F  0.31211186  0.07535855  0.99216041    -0.20780
C1291       C  0.21404301  0.20925638  0.00078200    -0.22210
C1292       C  0.20123370  0.22598318  0.02461043    -0.10260
C1293       C  0.19569977  0.27019259  0.02733242     0.28600
C1294       C  0.20199500  0.29668284  0.00622511    -0.22210
C1295       C  0.21372361  0.27960481  0.98220109    -0.10270
C1296       C  0.22036298  0.23557012  0.97983376     0.28610
F1297       F  0.23232356  0.21740562  0.95704569    -0.20790
H1298       H  0.21911384  0.17567856  0.99827387     0.16970
H1299       H  0.19635730  0.33019402  0.00846112     0.16980
F1300       F  0.18362367  0.28800437  0.05023471    -0.20780
C1301       C  0.29697361  0.90649202  0.12298630    -0.22210
C1302       C  0.25482196  0.91885379  0.11989570    -0.10260
C1303       C  0.22430300  0.88779723  0.11370004     0.28600
C1304       C  0.23598925  0.84508926  0.11158955    -0.22210
C1305       C  0.27810019  0.83347893  0.11539848    -0.10270
C1306       C  0.30842634  0.86450835  0.12083530     0.28610
F1307       F  0.34922754  0.85402545  0.12463519    -0.20790
H1308       H  0.32165399  0.92940623  0.12730482     0.16970
H1309       H  0.21216154  0.82106818  0.10773079     0.16980
F1310       F  0.18340925  0.89837839  0.11071444    -0.20780
C1311       C  0.31137706  0.35872499  0.13038631    -0.22210
C1312       C  0.27262942  0.33901121  0.12440024    -0.10260
C1313       C  0.23718526  0.36398747  0.11982411     0.28600
C1314       C  0.24055406  0.40768458  0.12148796    -0.22210
C1315       C  0.27894216  0.42712460  0.12780458    -0.10270
C1316       C  0.31460339  0.40274106  0.13197921     0.28610
F1317       F  0.35241502  0.42145970  0.13703247    -0.20790
H1318       H  0.33904163  0.34008661  0.13388631     0.16970
H1319       H  0.21301994  0.42652844  0.11790744     0.16980
F1320       F  0.19892717  0.34644849  0.11445836    -0.20780
C1321       C  0.53279265  0.15287690  0.11530388    -0.22210
C1322       C  0.54671456  0.13115726  0.13717841    -0.10260
C1323       C  0.51830862  0.12436098  0.15769297     0.28600
C1324       C  0.47632789  0.13711807  0.15556626    -0.22210
C1325       C  0.46212614  0.15674432  0.13306648    -0.10270
C1326       C  0.49089692  0.16536281  0.11318680     0.28610
F1327       F  0.47790508  0.18375811  0.09111599    -0.20790
H1328       H  0.55405402  0.15879434  0.09928405     0.16970
H1329       H  0.45414727  0.12909531  0.17072900     0.16980
F1330       F  0.53005769  0.10244785  0.17876611    -0.20780
C1331       C  0.01759022  0.07340735  0.14112316    -0.22210
C1332       C  0.04208931  0.09464233  0.12275114    -0.10260
C1333       C  0.02227122  0.11768530  0.10337995     0.28600
C1334       C  0.97843397  0.12003463  0.10266640    -0.22210
C1335       C  0.95384340  0.10050954  0.12173069    -0.10270
C1336       C  0.97363473  0.07642392  0.14072070     0.28610
F1337       F  0.95051476  0.05643732  0.15907966    -0.20790
H1338       H  0.03254359  0.05600151  0.15634966     0.16970
H1339       H  0.96384012  0.13913297  0.08809431     0.16980
F1340       F  0.04549909  0.13975848  0.08598105    -0.20780
C1341       C  0.17117321  0.18535264  0.25362653    -0.22210
C1342       C  0.15343369  0.17740918  0.22942059    -0.10260
C1343       C  0.10987229  0.16817703  0.22741728     0.28600
C1344       C  0.08469786  0.16689225  0.24957207    -0.22210
C1345       C  0.10257005  0.17470576  0.27384293    -0.10270
C1346       C  0.14613967  0.18437394  0.27567016     0.28610
F1347       F  0.16493116  0.19341107  0.29871911    -0.20790
H1348       H  0.20437340  0.19298552  0.25548988     0.16970
H1349       H  0.05150827  0.15921330  0.24778225     0.16980
F1350       F  0.09159138  0.15961886  0.20415632    -0.20780
C1351       C  0.37823142  0.09882355  0.27404648    -0.22210
C1352       C  0.42123063  0.10920721  0.27123153    -0.10260
C1353       C  0.44052614  0.10137673  0.24703361     0.28600
C1354       C  0.41606952  0.08736873  0.22569633    -0.22210
C1355       C  0.37232148  0.08085026  0.22832001    -0.10270
C1356       C  0.35410831  0.08512502  0.25296516     0.28610
F1357       F  0.31189965  0.08001310  0.25614532    -0.20790
H1358       H  0.36236006  0.10346293  0.29244494     0.16970
H1359       H  0.43059715  0.08518771  0.20673334     0.16980
F1360       F  0.48205608  0.11000235  0.24351626    -0.20780
loop_ 
_geom_bond_atom_site_label_1 
_geom_bond_atom_site_label_2 
_geom_bond_distance 
_geom_bond_site_symmetry_2 
_ccdc_geom_bond_type 
N1            N2   1.307       .  A
N1            N7   1.312       .  A
N1          Mn30   2.114       .  S
N2            C9   1.337       .  A
N3            N5   1.312       .  A
N3            N4   1.319       .  A
N3          Mn19   2.182       .  S
N4           C10   1.352       .  A
N5            N6   1.315       .  A
N5          Mn30   2.180       .  S
N6           C10   1.349       .  A
N7            N8   1.324       .  A
N7          Mn19   2.233       .  S
N8            C9   1.362       .  A
C9         C1342   1.462       .  S
C10        C1312   1.469       .  S
N11          N17   1.321       .  A
N11          N12   1.317       .  A
N11         Mn41   2.186       .  S
N12          C20   1.346       .  A
N13          N14   1.312       .  A
N13          N15   1.316       .  A
N13         Mn19   2.151       .  S
N14          C21   1.341       .  A
N15          N16   1.331       .  A
N15         Mn41   2.254       .  S
N16          C21   1.362       .  A
N17          N18   1.326       .  A
N17         Mn19   2.243       .  S
N18          C20   1.357       .  A
Mn19        Cl43   2.539       .  S
C20        C1325   1.473       .  S
C21        C1355   1.477       .  S
N22          N23   1.309       .  A
N22          N28   1.312       .  A
N22         Mn30   2.121       .  S
N23          C31   1.338       .  A
N24          N26   1.314       .  A
N24          N25   1.324       .  A
N24         Mn42   2.209       .  S
N25          C32   1.355       .  A
N26          N27   1.317       .  A
N26         Mn30   2.182       .  S
N27          C32   1.348       .  A
N28          N29   1.327       .  A
N28         Mn42   2.246       .  S
N29          C31   1.365       .  A
Mn30        Cl43   2.536       .  S
C31        C1292   1.474       .  S
C32        C1332   1.468       .  S
N33          N34   1.307   1_545  A
N33          N39   1.322       .  A
N33         Mn41   2.166       .  S
N34          C44   1.340       .  A
N35          N36   1.310       .  A
N35          N37   1.317       .  A
N35         Mn42   2.147       .  S
N36          C45   1.338       .  A
N37          N38   1.333       .  A
N37         Mn41   2.261       .  S
N38          C45   1.363       .  A
N39          N40   1.332   1_545  A
N39         Mn42   2.263       .  S
N40          C44   1.364       .  A
Mn41        Cl43   2.527       .  S
Mn42        Cl43   2.541       .  S
C44        C1302   1.484       .  S
C45        C1282   1.475       .  S
N46          N47   1.314       .  A
N46          N52   1.316       .  A
N46         Mn75   2.178       .  S
N47          C54   1.345       .  A
N48          N50   1.318       .  A
N48          N49   1.320       .  A
N48         Mn64   2.210       .  S
N49          C55   1.352       .  A
N50          N51   1.321       .  A
N50         Mn75   2.210       .  S
N51          C55   1.356       .  A
N52          N53   1.321       .  A
N52         Mn64   2.196       .  S
N53          C54   1.353       .  A
C54        C1315   1.452       .  S
C55        C1255   1.484       .  S
N56          N62   1.316       .  A
N56          N57   1.330       .  A
N56         Mn86   2.246       .  S
N57          C65   1.362       .  A
N58          N59   1.330       .  A
N58          N60   1.315       .  A
N58         Mn64   2.240       .  S
N59          C66   1.363       .  A
N60          N61   1.304       .  A
N60         Mn86   2.129       .  S
N61          C66   1.335       .  A
N62          N63   1.315       .  A
N62         Mn64   2.171       .  S
N63          C65   1.344       .  A
Mn64        Cl88   2.548       .  S
C65        C1262   1.480       .  S
C66        C1272   1.458       .  S
N67          N68   1.333       .  A
N67          N73   1.315       .  A
N67         Mn75   2.234       .  S
N68          C76   1.362       .  A
N69          N71   1.317       .  A
N69          N70   1.335       .  A
N69         Mn87   2.268       .  S
N70          C77   1.367       .  A
N71          N72   1.312       .  A
N71         Mn75   2.165       .  S
N72          C77   1.342       .  A
N73          N74   1.301       .  A
N73         Mn87   2.119       .  S
N74          C76   1.332       .  A
Mn75        Cl88   2.536       .  S
C76        C1232   1.461       .  S
C77        C1222   1.491       .  S
N78          N79   1.320       .  A
N78          N84   1.313       .  A
N78         Mn86   2.208       .  S
N79          C89   1.353       .  A
N80          N81   1.324       .  A
N80          N82   1.315       .  A
N80         Mn87   2.223       .  S
N81          C90   1.354       .  A
N82          N83   1.318       .  A
N82         Mn86   2.170       .  S
N83          C90   1.349       .  A
N84          N85   1.320       .  A
N84         Mn87   2.180       .  S
N85          C89   1.353       .  A
Mn86        Cl88   2.530       .  S
Mn87        Cl88   2.532       .  S
C89        C1245   1.480       .  S
C90        C1305   1.465       .  S
N91          N92   1.320       .  A
N91          N97   1.316       .  A
N91        Mn120   2.210       .  S
N92          C99   1.351       .  A
N93          N95   1.321       .  A
N93          N94   1.320       .  A
N93        Mn109   2.213       .  S
N94         C100   1.350       .  A
N95          N96   1.327       .  A
N95        Mn120   2.239       .  S
N96         C100   1.359       .  A
N97          N98   1.322       .  A
N97        Mn109   2.195       .  S
N98          C99   1.354       .  A
C99        C1335   1.474       .  S
C100       C1195   1.484       .  S
N101        N107   1.318       .  A
N101        N102   1.330       .  A
N101       Mn131   2.254       .  S
N102        C110   1.362       .  A
N103        N104   1.330       .  A
N103        N105   1.315       .  A
N103       Mn109   2.245       .  S
N104        C111   1.363       .  A
N105        N106   1.306       .  A
N105       Mn131   2.130       .  S
N106        C111   1.335       .  A
N107        N108   1.317       .  A
N107       Mn109   2.179       .  S
N108        C110   1.345       .  A
Mn109      Cl133   2.559       .  S
C110       C1175   1.482       .  S
C111       C1162   1.461       .  S
N112        N113   1.334       .  A
N112        N118   1.321       .  A
N112       Mn120   2.257       .  S
N113        C121   1.361       .  A
N114        N116   1.316       .  A
N114        N115   1.335       .  A
N114       Mn132   2.287       .  S
N115        C122   1.368       .  A
N116        N117   1.313       .  A
N116       Mn120   2.157       .  S
N117        C122   1.343       .  A
N118        N119   1.311       .  A
N118       Mn132   2.162       .  S
N119        C121   1.336       .  A
Mn120      Cl133   2.538       .  S
C121       C1205   1.484       .  S
C122       C1215   1.495       .  S
N123        N124   1.324   1_545  A
N123        N129   1.314       .  A
N123       Mn131   2.224       .  S
N124        C134   1.356       .  A
N125        N126   1.327       .  A
N125        N127   1.315       .  A
N125       Mn132   2.242       .  S
N126        C135   1.360       .  A
N127        N128   1.317       .  A
N127       Mn131   2.171       .  S
N128        C135   1.349       .  A
N129        N130   1.322   1_545  A
N129       Mn132   2.193       .  S
N130        C134   1.354       .  A
Mn131      Cl133   2.529       .  S
Mn132      Cl133   2.540       .  S
C134       C1185   1.489       .  S
C135       C1322   1.485       .  S
N136        N137   1.313       .  A
N136        N142   1.317       .  A
N136       Mn165   2.163       .  S
N137        C144   1.342       .  A
N138        N140   1.315       .  A
N138        N139   1.303       .  A
N138       Mn154   2.121       .  S
N139        C145   1.334       .  A
N140        N141   1.329       .  A
N140       Mn165   2.237       .  S
N141        C145   1.361       .  A
N142        N143   1.333       .  A
N142       Mn154   2.274       .  S
N143        C144   1.367       .  A
C144       C1132   1.489       .  S
C145       C1122   1.452       .  S
N146        N152   1.315       .  A
N146        N147   1.318       .  A
N146       Mn176   2.173       .  S
N147        C155   1.349       .  A
N148        N149   1.316       .  A
N148        N150   1.314       .  A
N148       Mn154   2.168       .  S
N149        C156   1.350       .  A
N150        N151   1.326       .  A
N150       Mn176   2.238       .  S
N151        C156   1.359       .  A
N152        N153   1.329       .  A
N152       Mn154   2.255       .  S
N153        C155   1.361       .  A
Mn154      Cl178   2.548       .  S
C155       C1192   1.485       .  S
C156       C1252   1.485       .  S
N157        N158   1.320       .  A
N157        N163   1.315       .  A
N157       Mn165   2.191       .  S
N158        C166   1.353       .  A
N159        N161   1.317       .  A
N159        N160   1.323       .  A
N159       Mn177   2.210       .  S
N160        C167   1.356       .  A
N161        N162   1.321       .  A
N161       Mn165   2.217       .  S
N162        C167   1.354       .  A
N163        N164   1.319       .  A
N163       Mn177   2.204       .  S
N164        C166   1.353       .  A
Mn165      Cl178   2.538       .  S
C166       C1242   1.478       .  S
C167       C1182   1.490       .  S
N168        N169   1.303       .  A
N168        N174   1.316       .  A
N168       Mn176   2.130       .  S
N169        C179   1.334       .  A
N170        N171   1.313       .  A
N170        N172   1.316       .  A
N170       Mn177   2.165       .  S
N171        C180   1.343       .  A
N172        N173   1.331       .  A
N172       Mn176   2.255       .  S
N173        C180   1.365       .  A
N174        N175   1.330       .  A
N174       Mn177   2.239       .  S
N175        C179   1.362       .  A
Mn176      Cl178   2.531       .  S
Mn177      Cl178   2.553       .  S
C179       C1152   1.455       .  S
C180       C1142   1.482       .  S
N181        N182   1.304       .  A
N181        N187   1.315       .  A
N181       Mn210   2.120       .  S
N182        C189   1.334       .  A
N183        N185   1.317       .  A
N183        N184   1.327       .  A
N183       Mn199   2.233       .  S
N184        C190   1.362       .  A
N185        N186   1.306       .  A
N185       Mn210   2.146       .  S
N186        C190   1.339       .  A
N187        N188   1.332       .  A
N187       Mn199   2.261       .  S
N188        C189   1.368       .  A
C189       C1295   1.475       .  S
C190       C1092   1.470       .  S
N191        N197   1.324       .  A
N191        N192   1.322       .  A
N191       Mn221   2.220       .  S
N192        C200   1.353       .  A
N193        N194   1.321       .  A
N193        N195   1.320       .  A
N193       Mn199   2.210       .  S
N194        C201   1.353       .  A
N195        N196   1.329       .  A
N195       Mn221   2.251       .  S
N196        C201   1.358       .  A
N197        N198   1.331       .  A
N197       Mn199   2.269       .  S
N198        C200   1.362       .  A
Mn199      Cl223   2.562       .  S
C200       C1102   1.505       .  S
C201       C1225   1.490       .  S
N202        N203   1.320       .  A
N202        N208   1.306       .  A
N202       Mn210   2.174       .  S
N203        C211   1.354       .  A
N204        N206   1.308       .  A
N204        N205   1.321       .  A
N204       Mn222   2.177       .  S
N205        C212   1.354       .  A
N206        N207   1.319       .  A
N206       Mn210   2.200       .  S
N207        C212   1.355       .  A
N208        N209   1.317       .  A
N208       Mn222   2.172       .  S
N209        C211   1.351       .  A
Mn210      Cl223   2.519       .  S
C211       C1062   1.468       .  S
C212       C1112   1.478       .  S
N213        N214   1.313       .  A
N213        N219   1.314       .  A
N213       Mn221   2.161       .  S
N214        C224   1.348       .  A
N215        N216   1.307       .  A
N215        N217   1.316       .  A
N215       Mn222   2.143       .  S
N216        C225   1.333       .  A
N217        N218   1.332       .  A
N217       Mn221   2.271       .  S
N218        C225   1.370       .  A
N219        N220   1.314       .  A
N219       Mn222   2.177       .  S
N220        C224   1.348       .  A
Mn221      Cl223   2.554       .  S
Mn222      Cl223   2.521       .  S
C224       C1082   1.455       .  S
C225       C1072   1.474       .  S
N226        N227   1.339       .  A
N226        N232   1.311       .  A
N226       Mn255   2.270       .  S
N227        C234   1.372       .  A
N228        N230   1.320       .  A
N228        N229   1.333       .  A
N228       Mn244   2.284       .  S
N229        C235   1.364       .  A
N230        N231   1.319       .  A
N230       Mn255   2.180       .  S
N231        C235   1.350       .  A
N232        N233   1.295       .  A
N232       Mn244   2.118       .  S
N233        C234   1.330       .  A
C234       C1235   1.488       .  S
C235       C1105   1.505       .  S
N236        N242   1.312       .  A
N236        N237   1.318       .  A
N236       Mn266   2.186       .  S
N237        C245   1.352       .  A
N238        N239   1.331       .  A
N238        N240   1.312       .  A
N238       Mn244   2.240       .  S
N239        C246   1.360       .  A
N240        N241   1.316       .  A
N240       Mn266   2.160       .  S
N241        C246   1.347       .  A
N242        N243   1.315       .  A
N242       Mn244   2.169       .  S
N243        C245   1.349       .  A
Mn244      Cl268   2.476       .  S
C245       C1055   1.467       .  S
C246       C1285   1.493       .  S
N247        N248   1.331       .  A
N247        N253   1.314       .  A
N247       Mn255   2.262       .  S
N248        C256   1.371       .  A
N249        N251   1.322       .  A
N249        N250   1.332       .  A
N249       Mn267   2.276       .  S
N250        C257   1.366       .  A
N251        N252   1.314       .  A
N251       Mn255   2.183       .  S
N252        C257   1.344       .  A
N253        N254   1.304       .  A
N253       Mn267   2.126       .  S
N254        C256   1.332       .  A
Mn255      Cl268   2.583       .  S
C256       C1032   1.465       .  S
C257       C1045   1.493       .  S
N258        N259   1.314   1_565  A
N258        N264   1.313       .  A
N258       Mn266   2.185       .  S
N259        C269   1.348       .  A
N260        N261   1.324       .  A
N260        N262   1.313       .  A
N260       Mn267   2.233       .  S
N261        C270   1.357       .  A
N262        N263   1.321       .  A
N262       Mn266   2.177       .  S
N263        C270   1.351       .  A
N264        N265   1.325   1_565  A
N264       Mn267   2.203       .  S
N265        C269   1.358       .  A
Mn266      Cl268   2.557       .  S
Mn267      Cl268   2.507       .  S
C269       C1115   1.475       .  S
C270       C1022   1.490       .  S
N271        N272   1.326       .  A
N271        N277   1.316       .  A
N271       Mn300   2.216       .  S
N272        C279   1.359       .  A
N273        N275   1.310       .  A
N273        N274   1.310       .  A
N273       Mn289   2.139       .  S
N274        C280   1.346       .  A
N275        N276   1.316       .  A
N275       Mn300   2.177       .  S
N276        C280   1.351       .  A
N277        N278   1.321       .  A
N277       Mn289   2.224       .  S
N278        C279   1.355       .  A
C279       C1172   1.497       .  S
C280       C1085   1.453       .  S
N281        N287   1.317       .  A
N281        N282   1.315       .  A
N281       Mn311   2.168       .  S
N282        C290   1.346       .  A
N283        N284   1.307       .  A
N283        N285   1.314       .  A
N283       Mn289   2.129       .  S
N284        C291   1.336       .  A
N285        N286   1.328       .  A
N285       Mn311   2.232       .  S
N286        C291   1.360       .  A
N287        N288   1.328       .  A
N287       Mn289   2.248       .  S
N288        C290   1.359       .  A
Mn289      Cl313   2.513       .  S
C290       C1002   1.474       .  S
C291       C1125   1.468       .  S
N292        N293   1.322       .  A
N292        N298   1.318       .  A
N292       Mn300   2.205       .  S
N293        C301   1.351       .  A
N294        N296   1.313       .  A
N294        N295   1.329       .  A
N294       Mn312   2.230       .  S
N295        C302   1.360       .  A
N296        N297   1.318       .  A
N296       Mn300   2.191       .  S
N297        C302   1.352       .  A
N298        N299   1.327       .  A
N298       Mn312   2.228       .  S
N299        C301   1.357       .  A
Mn300      Cl313   2.554       .  S
C301        C982   1.497       .  S
C302       C1015   1.494       .  S
N303        N304   1.312       .  A
N303        N309   1.321       .  A
N303       Mn311   2.172       .  S
N304        C314   1.344       .  A
N305        N306   1.317       .  A
N305        N307   1.316       .  A
N305       Mn312   2.182       .  S
N306        C315   1.345       .  A
N307        N308   1.327       .  A
N307       Mn311   2.227       .  S
N308        C315   1.357       .  A
N309        N310   1.321       .  A
N309       Mn312   2.229       .  S
N310        C314   1.358       .  A
Mn311      Cl313   2.547       .  S
Mn312      Cl313   2.530       .  S
C314       C1095   1.469       .  S
C315        C995   1.473       .  S
N316        N317   1.332       .  A
N316        N322   1.317       .  A
N316       Mn345   2.261       .  S
N317        C324   1.365       .  A
N318        N320   1.319       .  A
N318        N319   1.331       .  A
N318       Mn334   2.256       .  S
N319        C325   1.361   1_565  A
N320        N321   1.317       .  A
N320       Mn345   2.182       .  S
N321        C325   1.347   1_565  A
N322        N323   1.305       .  A
N322       Mn334   2.129       .  S
N323        C324   1.335       .  A
C324       C1165   1.467       .  S
C325       C1012   1.485       .  S
N326        N332   1.313       .  A
N326        N327   1.319       .  A
N326       Mn356   2.197       .  S
N327        C335   1.353       .  A
N328        N329   1.328       .  A
N328        N330   1.314       .  A
N328       Mn334   2.255       .  S
N329        C336   1.362       .  A
N330        N331   1.320       .  A
N330       Mn356   2.177       .  S
N331        C336   1.351       .  A
N332        N333   1.314       .  A
N332       Mn334   2.165       .  S
N333        C335   1.349       .  A
Mn334      Cl358   2.522       .  S
C335       C1052   1.458       .  S
C336       C1135   1.496       .  S
N337        N338   1.330       .  A
N337        N343   1.317       .  A
N337       Mn345   2.246       .  S
N338        C346   1.362       .  A
N339        N341   1.323       .  A
N339        N340   1.328       .  A
N339       Mn357   2.260       .  S
N340        C347   1.361       .  A
N341        N342   1.319       .  A
N341       Mn345   2.188       .  S
N342        C347   1.346       .  A
N343        N344   1.309       .  A
N343       Mn357   2.153       .  S
N344        C346   1.339       .  A
Mn345      Cl358   2.563       .  S
C346        C962   1.466       .  S
C347       C1042   1.492       .  S
N348        N349   1.319       .  A
N348        N354   1.316       .  A
N348       Mn356   2.200       .  S
N349        C359   1.353       .  A
N350        N351   1.332       .  A
N350        N352   1.314       .  A
N350       Mn357   2.251       .  S
N351        C360   1.363       .  A
N352        N353   1.315       .  A
N352       Mn356   2.166       .  S
N353        C360   1.345       .  A
N354        N355   1.324       .  A
N354       Mn357   2.215       .  S
N355        C359   1.356       .  A
Mn356      Cl358   2.560       .  S
Mn357      Cl358   2.529       .  S
C359       C1005   1.485       .  S
C360        C972   1.487       .  S
N361        N362   1.320       .  A
N361        N367   1.315       .  A
N361       Mn390   2.198       .  S
N362        C369   1.352       .  A
N363        N365   1.316       .  A
N363        N364   1.322       .  A
N363       Mn379   2.199       .  S
N364        C370   1.354       .  A
N365        N366   1.315       .  A
N365       Mn390   2.193   1_455  S
N366        C370   1.352       .  A
N367        N368   1.324       .  A
N367       Mn379   2.220   1_655  S
N368        C369   1.358       .  A
C369        C992   1.488       .  S
C370        C925   1.474       .  S
N371        N377   1.317       .  A
N371        N372   1.312       .  A
N371       Mn401   2.182       .  S
N372        C380   1.347       .  A
N373        N374   1.318       .  A
N373        N375   1.315       .  A
N373       Mn379   2.192       .  S
N374        C381   1.351       .  A
N375        N376   1.319       .  A
N375       Mn401   2.195       .  S
N376        C381   1.351       .  A
N377        N378   1.328       .  A
N377       Mn379   2.226       .  S
N378        C380   1.358       .  A
Mn379      Cl403   2.553       .  S
C380        C952   1.479       .  S
C381       C1065   1.464       .  S
N382        N383   1.322       .  A
N382        N388   1.314       .  A
N382       Mn390   2.204       .  S
N383        C391   1.355       .  A
N384        N386   1.314       .  A
N384        N385   1.318       .  A
N384       Mn402   2.167       .  S
N385        C392   1.348       .  A
N386        N387   1.314       .  A
N386       Mn390   2.193       .  S
N387        C392   1.353       .  A
N388        N389   1.321       .  A
N388       Mn402   2.207       .  S
N389        C391   1.355       .  A
Mn390      Cl403   2.532   1_655  S
C391        C902   1.486       .  S
C392        C945   1.454       .  S
N393        N394   1.316       .  A
N393        N399   1.313   1_455  A
N393       Mn401   2.184       .  S
N394        C404   1.351   1_455  A
N395        N396   1.313       .  A
N395        N397   1.314       .  A
N395       Mn402   2.171   1_455  S
N396        C405   1.348       .  A
N397        N398   1.322       .  A
N397       Mn401   2.201       .  S
N398        C405   1.354       .  A
N399        N400   1.323       .  A
N399       Mn402   2.205       .  S
N400        C404   1.355       .  A
Mn401      Cl403   2.528       .  S
Mn402      Cl403   2.545   1_655  S
C404        C935   1.475       .  S
C405        C912   1.463       .  S
N406        N407   1.329       .  A
N406        N412   1.318       .  A
N406       Mn435   2.236       .  S
N407        C414   1.357       .  A
N408        N410   1.321       .  A
N408        N409   1.322       .  A
N408       Mn424   2.223       .  S
N409        C415   1.355       .  A
N410        N411   1.312       .  A
N410       Mn435   2.187       .  S
N411        C415   1.349       .  A
N412        N413   1.318       .  A
N412       Mn424   2.185       .  S
N413        C414   1.348       .  A
C414        C975   1.487       .  S
C415        C885   1.469       .  S
N416        N422   1.311   1_455  A
N416        N417   1.318   1_565  A
N416       Mn446   2.183       .  S
N417        C425   1.349   1_455  A
N418        N419   1.328       .  A
N418        N420   1.318       .  A
N418       Mn424   2.249   1_455  S
N419        C426   1.362       .  A
N420        N421   1.316       .  A
N420       Mn446   2.188       .  S
N421        C426   1.349       .  A
N422        N423   1.323   1_565  A
N422       Mn424   2.195       .  S
N423        C425   1.353       .  A
Mn424      Cl448   2.534   1_655  S
C425        C932   1.463       .  S
C426       C1025   1.487       .  S
N427        N428   1.334       .  A
N427        N433   1.313   1_655  A
N427       Mn435   2.258       .  S
N428        C436   1.365       .  A
N429        N431   1.319       .  A
N429        N430   1.324       .  A
N429       Mn447   2.236       .  S
N430        C437   1.356       .  A
N431        N432   1.313       .  A
N431       Mn435   2.174   1_455  S
N432        C437   1.347       .  A
N433        N434   1.311       .  A
N433       Mn447   2.141       .  S
N434        C436   1.337   1_455  A
Mn435      Cl448   2.554   1_655  S
C436        C875   1.483       .  S
C437        C922   1.461       .  S
N438        N439   1.321       .  A
N438        N444   1.309       .  A
N438       Mn446   2.199       .  S
N439        C449   1.357       .  A
N440        N441   1.326       .  A
N440        N442   1.317       .  A
N440       Mn447   2.219       .  S
N441        C450   1.354       .  A
N442        N443   1.321       .  A
N442       Mn446   2.195       .  S
N443        C450   1.350       .  A
N444        N445   1.319       .  A
N444       Mn447   2.166       .  S
N445        C449   1.349       .  A
Mn446      Cl448   2.548       .  S
Mn447      Cl448   2.513       .  S
C449        C895   1.479       .  S
C450        C865   1.493       .  S
N451        N452   1.335       .  A
N451        N457   1.314       .  A
N451       Mn480   2.271       .  S
N452        C459   1.368       .  A
N453        N455   1.318       .  A
N453        N454   1.328       .  A
N453       Mn469   2.248       .  S
N454        C460   1.359       .  A
N455        N456   1.311       .  A
N455       Mn480   2.170       .  S
N456        C460   1.348       .  A
N457        N458   1.306       .  A
N457       Mn469   2.129       .  S
N458        C459   1.331       .  A
C459       C1075   1.483       .  S
C460        C955   1.478       .  S
N461        N467   1.307       .  A
N461        N462   1.313       .  A
N461       Mn491   2.163       .  S
N462        C470   1.350       .  A
N463        N464   1.326       .  A
N463        N465   1.310       .  A
N463       Mn469   2.222       .  S
N464        C471   1.359       .  A
N465        N466   1.321       .  A
N465       Mn491   2.181       .  S
N466        C471   1.351       .  A
N467        N468   1.319       .  A
N467       Mn469   2.167       .  S
N468        C470   1.353       .  A
Mn469      Cl493   2.509       .  S
C470        C842   1.465       .  S
C471        C985   1.496       .  S
N472        N473   1.328       .  A
N472        N478   1.319       .  A
N472       Mn480   2.249       .  S
N473        C481   1.358       .  A
N474        N476   1.322       .  A
N474        N475   1.322       .  A
N474       Mn492   2.228       .  S
N475        C482   1.354       .  A
N476        N477   1.319       .  A
N476       Mn480   2.216       .  S
N477        C482   1.355       .  A
N478        N479   1.320       .  A
N478       Mn492   2.191       .  S
N479        C481   1.348       .  A
Mn480      Cl493   2.549       .  S
C481        C832   1.484       .  S
C482        C855   1.484       .  S
N483        N484   1.306       .  A
N483        N489   1.311       .  A
N483       Mn491   2.143       .  S
N484        C494   1.342       .  A
N485        N486   1.329       .  A
N485        N487   1.316       .  A
N485       Mn492   2.247       .  S
N486        C495   1.363       .  A
N487        N488   1.314       .  A
N487       Mn491   2.172       .  S
N488        C495   1.344       .  A
N489        N490   1.325       .  A
N489       Mn492   2.201       .  S
N490        C494   1.357       .  A
Mn491      Cl493   2.522       .  S
Mn492      Cl493   2.547       .  S
C494        C942   1.456       .  S
C495        C822   1.478       .  S
N496        N497   1.319       .  A
N496        N502   1.314       .  A
N496       Mn525   2.175       .  S
N497        C504   1.350       .  A
N498        N500   1.308       .  A
N498        N499   1.320       .  A
N498       Mn514   2.167       .  S
N499        C505   1.353       .  A
N500        N501   1.313       .  A
N500       Mn525   2.170       .  S
N501        C505   1.349       .  A
N502        N503   1.325       .  A
N502       Mn514   2.215       .  S
N503        C504   1.353       .  A
C504        C965   1.485       .  S
C505        C845   1.465       .  S
N506        N512   1.321       .  A
N506        N507   1.312       .  A
N506       Mn536   2.160       .  S
N507        C515   1.344       .  A
N508        N509   1.302       .  A
N508        N510   1.312       .  A
N508       Mn514   2.125       .  S
N509        C516   1.329       .  A
N510        N511   1.336       .  A
N510       Mn536   2.267       .  S
N511        C516   1.369       .  A
N512        N513   1.328       .  A
N512       Mn514   2.261       .  S
N513        C515   1.359       .  A
Mn514      Cl538   2.472       .  S
C515        C892   1.471       .  S
C516       C1035   1.485       .  S
N517        N518   1.319       .  A
N517        N523   1.315       .  A
N517       Mn525   2.178       .  S
N518        C526   1.349       .  A
N519        N521   1.309       .  A
N519        N520   1.320       .  A
N519       Mn537   2.169       .  S
N520        C527   1.351       .  A
N521        N522   1.313       .  A
N521       Mn525   2.170       .  S
N522        C527   1.349       .  A
N523        N524   1.326       .  A
N523       Mn537   2.219       .  S
N524        C526   1.354       .  A
Mn525      Cl538   2.553       .  S
C526        C812   1.489       .  S
C527        C882   1.458       .  S
N528        N529   1.314   1_565  A
N528        N534   1.321       .  A
N528       Mn536   2.179       .  S
N529        C539   1.348       .  A
N530        N531   1.302       .  A
N530        N532   1.310       .  A
N530       Mn537   2.115       .  S
N531        C540   1.329       .  A
N532        N533   1.333       .  A
N532       Mn536   2.254       .  S
N533        C540   1.369       .  A
N534        N535   1.326       .  A
N534       Mn537   2.255       .  S
N535        C539   1.360   1_565  A
Mn536      Cl538   2.567       .  S
Mn537      Cl538   2.474       .  S
C539        C852   1.484       .  S
C540        C802   1.467       .  S
N541        N542   1.303       .  A
N541        N547   1.314       .  A
N541       Mn570   2.117       .  S
N542        C549   1.334       .  A
N543        N545   1.316   1_655  A
N543        N544   1.327       .  A
N543       Mn559   2.233       .  S
N544        C550   1.363   1_655  A
N545        N546   1.306       .  A
N545       Mn570   2.142       .  S
N546        C550   1.337       .  A
N547        N548   1.329       .  A
N547       Mn559   2.245   1_455  S
N548        C549   1.365       .  A
C549       C1345   1.467       .  S
C550        C792   1.471       .  S
N551        N557   1.324       .  A
N551        N552   1.319       .  A
N551       Mn581   2.212       .  S
N552        C560   1.351       .  A
N553        N554   1.321       .  A
N553        N555   1.319       .  A
N553       Mn559   2.205       .  S
N554        C561   1.352       .  A
N555        N556   1.330       .  A
N555       Mn581   2.254       .  S
N556        C561   1.360       .  A
N557        N558   1.332       .  A
N557       Mn559   2.268       .  S
N558        C560   1.362       .  A
Mn559      Cl583   2.567   1_655  S
C560        C762   1.502       .  S
C561       C1212   1.492       .  S
N562        N563   1.313       .  A
N562        N568   1.307       .  A
N562       Mn570   2.154       .  S
N563        C571   1.347       .  A
N564        N566   1.307       .  A
N564        N565   1.322       .  A
N564       Mn582   2.186       .  S
N565        C572   1.354       .  A
N566        N567   1.320       .  A
N566       Mn570   2.191       .  S
N567        C572   1.355       .  A
N568        N569   1.322       .  A
N568       Mn582   2.194       .  S
N569        C571   1.358       .  A
Mn570      Cl583   2.510       .  S
C571        C915   1.465       .  S
C572        C775   1.480       .  S
N573        N574   1.315   1_545  A
N573        N579   1.316   1_655  A
N573       Mn581   2.172       .  S
N574        C584   1.351   1_655  A
N575        N576   1.310   1_655  A
N575        N577   1.319       .  A
N575       Mn582   2.156   1_655  S
N576        C585   1.337   1_455  A
N577        N578   1.332       .  A
N577       Mn581   2.259       .  S
N578        C585   1.364       .  A
N579        N580   1.310   1_545  A
N579       Mn582   2.166       .  S
N580        C584   1.344       .  A
Mn581      Cl583   2.548   1_655  S
Mn582      Cl583   2.531       .  S
C584        C782   1.449       .  S
C585        C862   1.475       .  S
N586        N587   1.327       .  A
N586        N592   1.316       .  A
N586       Mn615   2.216       .  S
N587        C594   1.360       .  A
N588        N590   1.309       .  A
N588        N589   1.308       .  A
N588       Mn604   2.125       .  S
N589        C595   1.342       .  A
N590        N591   1.318       .  A
N590       Mn615   2.184       .  S
N591        C595   1.353       .  A
N592        N593   1.319       .  A
N592       Mn604   2.219       .  S
N593        C594   1.353       .  A
C594       C1265   1.495       .  S
C595        C785   1.447       .  S
N596        N602   1.316       .  A
N596        N597   1.315       .  A
N596       Mn626   2.161       .  S
N597        C605   1.346       .  A
N598        N599   1.306   1_455  A
N598        N600   1.314   1_455  A
N598       Mn604   2.128       .  S
N599        C606   1.335       .  A
N600        N601   1.330       .  A
N600       Mn626   2.240       .  S
N601        C606   1.362       .  A
N602        N603   1.328       .  A
N602       Mn604   2.250   1_655  S
N603        C605   1.359       .  A
Mn604      Cl628   2.494       .  S
C605        C745   1.475       .  S
C606       C1155   1.474       .  S
N607        N608   1.322       .  A
N607        N613   1.319       .  A
N607       Mn615   2.207       .  S
N608        C616   1.350       .  A
N609        N611   1.314       .  A
N609        N610   1.330       .  A
N609       Mn627   2.234       .  S
N610        C617   1.361       .  A
N611        N612   1.320       .  A
N611       Mn615   2.201       .  S
N612        C617   1.353       .  A
N613        N614   1.328       .  A
N613       Mn627   2.223       .  S
N614        C616   1.354       .  A
Mn615      Cl628   2.555       .  S
C616        C872   1.493       .  S
C617        C752   1.501       .  S
N618        N619   1.311       .  A
N618        N624   1.323       .  A
N618       Mn626   2.173   1_455  S
N619        C629   1.341       .  A
N620        N621   1.314       .  A
N620        N622   1.315   1_455  A
N620       Mn627   2.170       .  S
N621        C630   1.343   1_455  A
N622        N623   1.328       .  A
N622       Mn626   2.230       .  S
N623        C630   1.359       .  A
N624        N625   1.322       .  A
N624       Mn627   2.230       .  S
N625        C629   1.358       .  A
Mn626      Cl628   2.549   1_655  S
Mn627      Cl628   2.529       .  S
C629        C795   1.471       .  S
C630        C905   1.470       .  S
N631        N632   1.333       .  A
N631        N637   1.319       .  A
N631       Mn660   2.265       .  S
N632        C639   1.362       .  A
N633        N635   1.321       .  A
N633        N634   1.331       .  A
N633       Mn649   2.271       .  S
N634        C640   1.362       .  A
N635        N636   1.319       .  A
N635       Mn660   2.192       .  S
N636        C640   1.351       .  A
N637        N638   1.310       .  A
N637       Mn649   2.143       .  S
N638        C639   1.336       .  A
C639       C1202   1.480       .  S
C640        C765   1.502       .  S
N641        N647   1.311       .  A
N641        N642   1.318       .  A
N641       Mn671   2.174       .  S
N642        C650   1.351       .  A
N643        N644   1.333       .  A
N643        N645   1.315       .  A
N643       Mn649   2.252       .  S
N644        C651   1.363       .  A
N645        N646   1.314       .  A
N645       Mn671   2.165       .  S
N646        C651   1.345       .  A
N647        N648   1.315       .  A
N647       Mn649   2.173       .  S
N648        C650   1.349       .  A
Mn649      Cl673   2.502       .  S
C650        C732   1.464       .  S
C651       C1352   1.494       .  S
N652        N653   1.332       .  A
N652        N658   1.312       .  A
N652       Mn660   2.261       .  S
N653        C661   1.370       .  A
N654        N656   1.323       .  A
N654        N655   1.332   1_545  A
N654       Mn672   2.284       .  S
N655        C662   1.366       .  A
N656        N657   1.314   1_545  A
N656       Mn660   2.175       .  S
N657        C662   1.343       .  A
N658        N659   1.303       .  A
N658       Mn672   2.120       .  S
N659        C661   1.330       .  A
Mn660      Cl673   2.567       .  S
C661        C805   1.463       .  S
C662        C722   1.490       .  S
N663        N664   1.315       .  A
N663        N669   1.313       .  A
N663       Mn671   2.190       .  S
N664        C674   1.348       .  A
N665        N666   1.325       .  A
N665        N667   1.312       .  A
N665       Mn672   2.229       .  S
N666        C675   1.357       .  A
N667        N668   1.323       .  A
N667       Mn671   2.196       .  S
N668        C675   1.356       .  A
N669        N670   1.326       .  A
N669       Mn672   2.206       .  S
N670        C674   1.359       .  A
Mn671      Cl673   2.554       .  S
Mn672      Cl673   2.512       .  S
C674        C772   1.478       .  S
C675        C835   1.498       .  S
N676        N677   1.331       .  A
N676        N682   1.316       .  A
N676       Mn705   2.255       .  S
N677        C684   1.364       .  A
N678        N680   1.319       .  A
N678        N679   1.333       .  A
N678       Mn694   2.270       .  S
N679        C685   1.364       .  A
N680        N681   1.316       .  A
N680       Mn705   2.175       .  S
N681        C685   1.345       .  A
N682        N683   1.304       .  A
N682       Mn694   2.121       .  S
N683        C684   1.334       .  A
C684       C1275   1.461       .  S
C685        C755   1.490       .  S
N686        N692   1.313       .  A
N686        N687   1.320       .  A
N686       Mn716   2.201       .  S
N687        C695   1.353       .  A
N688        N689   1.328       .  A
N688        N690   1.314       .  A
N688       Mn694   2.256       .  S
N689        C696   1.363       .  A
N690        N691   1.317       .  A
N690       Mn716   2.161       .  S
N691        C696   1.348       .  A
N692        N693   1.313       .  A
N692       Mn694   2.162       .  S
N693        C695   1.349       .  A
Mn694      Cl718   2.523       .  S
C695        C735   1.461       .  S
C696       C1145   1.491       .  S
N697        N698   1.331       .  A
N697        N703   1.316       .  A
N697       Mn705   2.247       .  S
N698        C706   1.362       .  A
N699        N701   1.322       .  A
N699        N700   1.330       .  A
N699       Mn717   2.268       .  S
N700        C707   1.363       .  A
N701        N702   1.316       .  A
N701       Mn705   2.176       .  S
N702        C707   1.344       .  A
N703        N704   1.309       .  A
N703       Mn717   2.149       .  S
N704        C706   1.338       .  A
Mn705      Cl718   2.553       .  S
C706        C815   1.467       .  S
C707        C725   1.492       .  S
N708        N709   1.319       .  A
N708        N714   1.316       .  A
N708       Mn716   2.202       .  S
N709        C719   1.354       .  A
N710        N711   1.330       .  A
N710        N712   1.313       .  A
N710       Mn717   2.251       .  S
N711        C720   1.364       .  A
N712        N713   1.313       .  A
N712       Mn716   2.146       .  S
N713        C720   1.341       .  A
N714        N715   1.324       .  A
N714       Mn717   2.217       .  S
N715        C719   1.356       .  A
Mn716      Cl718   2.563       .  S
Mn717      Cl718   2.524       .  S
C719        C742   1.487       .  S
C720        C825   1.487       .  S
C721        C722   1.413       .  A
C721        C726   1.403       .  A
C721        H728   1.083       .  S
C722        C723   1.401       .  A
C723        C724   1.405       .  A
C723        F730   1.357       .  S
C724        C725   1.415       .  A
C724        H729   1.083       .  S
C725        C726   1.402       .  A
C726        F727   1.357       .  S
C731        C732   1.404       .  A
C731        C736   1.392       .  A
C731        H738   1.083       .  S
C732        C733   1.404       .  A
C733        C734   1.392       .  A
C733        F740   1.357       .  S
C734        C735   1.403       .  A
C734        H739   1.084       .  S
C735        C736   1.403       .  A
C736        F737   1.358       .  S
C741        C742   1.410       .  A
C741        C746   1.407       .  A
C741        H748   1.083       .  S
C742        C743   1.408       .  A
C743        C744   1.396       .  A
C743        F750   1.358       .  S
C744        C745   1.403       .  A
C744        H749   1.084       .  S
C745        C746   1.403       .  A
C746        F747   1.357       .  S
C751        C752   1.412       .  A
C751        C756   1.415       .  A
C751        H758   1.083       .  S
C752        C753   1.410       .  A
C753        C754   1.399       .  A
C753        F760   1.358       .  S
C754        C755   1.404       .  A
C754        H759   1.084       .  S
C755        C756   1.407       .  A
C756        F757   1.356       .  S
C761        C762   1.411       .  A
C761        C766   1.416       .  A
C761        H768   1.083       .  S
C762        C763   1.409       .  A
C763        C764   1.400       .  A
C763        F770   1.358       .  S
C764        C765   1.406       .  A
C764        H769   1.083       .  S
C765        C766   1.413       .  A
C766        F767   1.356       .  S
C771        C772   1.404       .  A
C771        C776   1.403       .  A
C771        H778   1.083       .  S
C772        C773   1.406       .  A
C773        C774   1.396       .  A
C773        F780   1.357       .  S
C774        C775   1.402       .  A
C774        H779   1.083       .  S
C775        C776   1.410       .  A
C776        F777   1.357       .  S
C781        C782   1.398   1_655  A
C781        C786   1.383       .  A
C781        H788   1.083       .  S
C782        C783   1.405       .  A
C783        C784   1.386       .  A
C783        F790   1.358       .  S
C784        C785   1.398       .  A
C784        H789   1.083       .  S
C785        C786   1.404   1_455  A
C786        F787   1.358       .  S
C791        C792   1.397   1_655  A
C791        C796   1.396   1_655  A
C791        H798   1.083       .  S
C792        C793   1.415       .  A
C793        C794   1.389       .  A
C793        F800   1.358       .  S
C794        C795   1.395       .  A
C794        H799   1.083       .  S
C795        C796   1.415       .  A
C796        F797   1.357   1_455  S
C801        C802   1.407       .  A
C801        C806   1.397       .  A
C801        H808   1.084       .  S
C802        C803   1.406   1_565  A
C803        C804   1.404       .  A
C803        F810   1.357       .  S
C804        C805   1.408       .  A
C804        H809   1.083       .  S
C805        C806   1.405   1_545  A
C806        F807   1.359       .  S
C811        C812   1.407       .  A
C811        C816   1.406       .  A
C811        H818   1.083       .  S
C812        C813   1.410       .  A
C813        C814   1.395       .  A
C813        F820   1.354       .  S
C814        C815   1.400       .  A
C814        H819   1.084       .  S
C815        C816   1.407       .  A
C816        F817   1.357       .  S
C821        C822   1.397       .  A
C821        C826   1.400       .  A
C821        H828   1.083       .  S
C822        C823   1.410       .  A
C823        C824   1.402       .  A
C823        F830   1.356       .  S
C824        C825   1.401       .  A
C824        H829   1.083       .  S
C825        C826   1.417       .  A
C826        F827   1.358       .  S
C831        C832   1.404       .  A
C831        C836   1.406       .  A
C831        H838   1.083       .  S
C832        C833   1.404       .  A
C833        C834   1.406       .  A
C833        F840   1.357       .  S
C834        C835   1.410       .  A
C834        H839   1.083       .  S
C835        C836   1.412       .  A
C836        F837   1.357       .  S
C841        C842   1.404       .  A
C841        C846   1.396       .  A
C841        H848   1.083       .  S
C842        C843   1.404       .  A
C843        C844   1.384       .  A
C843        F850   1.357       .  S
C844        C845   1.401       .  A
C844        H849   1.082       .  S
C845        C846   1.406       .  A
C846        F847   1.357       .  S
C851        C852   1.405       .  A
C851        C856   1.404       .  A
C851        H858   1.083       .  S
C852        C853   1.410       .  A
C853        C854   1.394       .  A
C853        F860   1.358       .  S
C854        C855   1.402       .  A
C854        H859   1.083       .  S
C855        C856   1.411       .  A
C856        F857   1.357       .  S
C861        C862   1.407   1_565  A
C861        C866   1.407       .  A
C861        H868   1.084       .  S
C862        C863   1.405       .  A
C863        C864   1.399       .  A
C863        F870   1.358       .  S
C864        C865   1.407   1_645  A
C864        H869   1.083   1_655  S
C865        C866   1.410   1_455  A
C866        F867   1.357   1_655  S
C871        C872   1.407       .  A
C871        C876   1.402   1_455  A
C871        H878   1.082       .  S
C872        C873   1.407       .  A
C873        C874   1.410       .  A
C873        F880   1.357       .  S
C874        C875   1.408   1_455  A
C874        H879   1.071   1_455  S
C875        C876   1.406       .  A
C876        F877   1.358       .  S
C881        C882   1.402       .  A
C881        C886   1.402       .  A
C881        H888   1.083       .  S
C882        C883   1.401       .  A
C883        C884   1.382       .  A
C883        F890   1.359       .  S
C884        C885   1.402       .  A
C884        H889   1.083       .  S
C885        C886   1.409       .  A
C886        F887   1.357       .  S
C891        C892   1.400       .  A
C891        C896   1.404       .  A
C891        H898   1.083       .  S
C892        C893   1.407       .  A
C893        C894   1.390       .  A
C893        F900   1.358       .  S
C894        C895   1.399       .  A
C894        H899   1.083       .  S
C895        C896   1.414       .  A
C896        F897   1.357       .  S
C901        C902   1.408       .  A
C901        C906   1.403       .  A
C901        H908   1.083       .  S
C902        C903   1.409       .  A
C903        C904   1.398       .  A
C903        F910   1.357       .  S
C904        C905   1.403       .  A
C904        H909   1.084       .  S
C905        C906   1.403       .  A
C906        F907   1.357       .  S
C911        C912   1.399       .  A
C911        C916   1.390       .  A
C911        H918   1.084       .  S
C912        C913   1.406       .  A
C913        C914   1.399       .  A
C913        F920   1.357       .  S
C914        C915   1.401       .  A
C914        H919   1.083       .  S
C915        C916   1.407       .  A
C916        F917   1.358       .  S
C921        C922   1.401       .  A
C921        C926   1.403       .  A
C921        H928   1.083       .  S
C922        C923   1.401       .  A
C923        C924   1.387       .  A
C923        F930   1.356       .  S
C924        C925   1.401       .  A
C924        H929   1.083       .  S
C925        C926   1.411       .  A
C926        F927   1.357       .  S
C931        C932   1.401       .  A
C931        C936   1.402       .  A
C931        H938   1.083       .  S
C932        C933   1.401       .  A
C933        C934   1.393       .  A
C933        F940   1.358   1_655  S
C934        C935   1.404       .  A
C934        H939   1.083   1_655  S
C935        C936   1.409       .  A
C936        F937   1.357       .  S
C941        C942   1.402       .  A
C941        C946   1.403       .  A
C941        H948   1.083       .  S
C942        C943   1.405       .  A
C943        C944   1.377       .  A
C943        F950   1.359       .  S
C944        C945   1.394       .  A
C944        H949   1.084       .  S
C945        C946   1.407       .  A
C946        F947   1.357       .  S
C951        C952   1.409       .  A
C951        C956   1.412       .  A
C951        H958   1.083       .  S
C952        C953   1.406       .  A
C953        C954   1.383       .  A
C953        F960   1.358       .  S
C954        C955   1.400       .  A
C954        H959   1.084       .  S
C955        C956   1.408       .  A
C956        F957   1.357       .  S
C961        C962   1.406       .  A
C961        C966   1.404       .  A
C961        H968   1.084       .  S
C962        C963   1.402       .  A
C963        C964   1.397       .  A
C963        F970   1.358       .  S
C964        C965   1.406       .  A
C964        H969   1.083       .  S
C965        C966   1.408       .  A
C966        F967   1.357       .  S
C971        C972   1.406       .  A
C971        C976   1.413       .  A
C971        H978   1.083       .  S
C972        C973   1.409       .  A
C973        C974   1.394       .  A
C973        F980   1.357       .  S
C974        C975   1.401       .  A
C974        H979   1.084       .  S
C975        C976   1.412       .  A
C976        F977   1.357       .  S
C981        C982   1.406       .  A
C981        C986   1.405       .  A
C981        H988   1.083       .  S
C982        C983   1.413       .  A
C983        C984   1.404       .  A
C983        F990   1.357       .  S
C984        C985   1.405       .  A
C984        H989   1.083       .  S
C985        C986   1.412       .  A
C986        F987   1.357       .  S
C991        C992   1.409       .  A
C991        C996   1.402       .  A
C991        H998   1.083       .  S
C992        C993   1.409       .  A
C993        C994   1.402       .  A
C993       F1000   1.357       .  S
C994        C995   1.404       .  A
C994        H999   1.084       .  S
C995        C996   1.401       .  A
C996        F997   1.357       .  S
C1001      C1002   1.403       .  A
C1001      C1006   1.396       .  A
C1001      H1008   1.084       .  S
C1002      C1003   1.403       .  A
C1003      C1004   1.406       .  A
C1003      F1010   1.357       .  S
C1004      C1005   1.409       .  A
C1004      H1009   1.083       .  S
C1005      C1006   1.408       .  A
C1006      F1007   1.358       .  S
C1011      C1012   1.406       .  A
C1011      C1016   1.414       .  A
C1011      H1018   1.083       .  S
C1012      C1013   1.405       .  A
C1013      C1014   1.396       .  A
C1013      F1020   1.358       .  S
C1014      C1015   1.405       .  A
C1014      H1019   1.083       .  S
C1015      C1016   1.413       .  A
C1016      F1017   1.357       .  S
C1021      C1022   1.403       .  A
C1021      C1026   1.398       .  A
C1021      H1028   1.083       .  S
C1022      C1023   1.414       .  A
C1023      C1024   1.406       .  A
C1023      F1030   1.357       .  S
C1024      C1025   1.404       .  A
C1024      H1029   1.083       .  S
C1025      C1026   1.411       .  A
C1026      F1027   1.358       .  S
C1031      C1032   1.414       .  A
C1031      C1036   1.408       .  A
C1031      H1038   1.084       .  S
C1032      C1033   1.398       .  A
C1033      C1034   1.391       .  A
C1033      F1040   1.358       .  S
C1034      C1035   1.413       .  A
C1034      H1039   1.084       .  S
C1035      C1036   1.403       .  A
C1036      F1037   1.354       .  S
C1041      C1042   1.399       .  A
C1041      C1046   1.401       .  A
C1041      H1048   1.083       .  S
C1042      C1043   1.416       .  A
C1043      C1044   1.407       .  A
C1043      F1050   1.357       .  S
C1044      C1045   1.402       .  A
C1044      H1049   1.083       .  S
C1045      C1046   1.416       .  A
C1046      F1047   1.357       .  S
C1051      C1052   1.400   1_455  A
C1051      C1056   1.391       .  A
C1051      H1058   1.083   1_455  S
C1052      C1053   1.403       .  A
C1053      C1054   1.392   1_655  A
C1053      F1060   1.358       .  S
C1054      C1055   1.403       .  A
C1054      H1059   1.083       .  S
C1055      C1056   1.408       .  A
C1056      F1057   1.358       .  S
C1061      C1062   1.404       .  A
C1061      C1066   1.396       .  A
C1061      H1068   1.083       .  S
C1062      C1063   1.405       .  A
C1063      C1064   1.395       .  A
C1063      F1070   1.358       .  S
C1064      C1065   1.402       .  A
C1064      H1069   1.084       .  S
C1065      C1066   1.403       .  A
C1066      F1067   1.357       .  S
C1071      C1072   1.400       .  A
C1071      C1076   1.398       .  A
C1071      H1078   1.084       .  S
C1072      C1073   1.413       .  A
C1073      C1074   1.407       .  A
C1073      F1080   1.357       .  S
C1074      C1075   1.404       .  A
C1074      H1079   1.083       .  S
C1075      C1076   1.413       .  A
C1076      F1077   1.359       .  S
C1081      C1082   1.402       .  A
C1081      C1086   1.388       .  A
C1081      H1088   1.083       .  S
C1082      C1083   1.404       .  A
C1083      C1084   1.384       .  A
C1083      F1090   1.358       .  S
C1084      C1085   1.401       .  A
C1084      H1089   1.084       .  S
C1085      C1086   1.403       .  A
C1086      F1087   1.357       .  S
C1091      C1092   1.409       .  A
C1091      C1096   1.388   1_455  A
C1091      H1098   1.083       .  S
C1092      C1093   1.400       .  A
C1093      C1094   1.397   1_455  A
C1093      F1100   1.357       .  S
C1094      C1095   1.411       .  A
C1094      H1099   1.083       .  S
C1095      C1096   1.398       .  A
C1096      F1097   1.358       .  S
C1101      C1102   1.406       .  A
C1101      C1106   1.403       .  A
C1101      H1108   1.083       .  S
C1102      C1103   1.414       .  A
C1103      C1104   1.417       .  A
C1103      F1110   1.357       .  S
C1104      C1105   1.411       .  A
C1104      H1109   1.083       .  S
C1105      C1106   1.410       .  A
C1106      F1107   1.358       .  S
C1111      C1112   1.407       .  A
C1111      C1116   1.403       .  A
C1111      H1118   1.083       .  S
C1112      C1113   1.403       .  A
C1113      C1114   1.393       .  A
C1113      F1120   1.355       .  S
C1114      C1115   1.403       .  A
C1114      H1119   1.084       .  S
C1115      C1116   1.407       .  A
C1116      F1117   1.357       .  S
C1121      C1122   1.398       .  A
C1121      C1126   1.388   1_554  A
C1121      H1128   1.084       .  S
C1122      C1123   1.408   1_554  A
C1123      C1124   1.403       .  A
C1123      F1130   1.357       .  S
C1124      C1125   1.403       .  A
C1124      H1129   1.083       .  S
C1125      C1126   1.407       .  A
C1126      F1127   1.359   1_556  S
C1131      C1132   1.410       .  A
C1131      C1136   1.403   1_554  A
C1131      H1138   1.084       .  S
C1132      C1133   1.404   1_554  A
C1133      C1134   1.407       .  A
C1133      F1140   1.357       .  S
C1134      C1135   1.412       .  A
C1134      H1139   1.083       .  S
C1135      C1136   1.406       .  A
C1136      F1137   1.357       .  S
C1141      C1142   1.409       .  A
C1141      C1146   1.402       .  A
C1141      H1148   1.084       .  S
C1142      C1143   1.403       .  A
C1143      C1144   1.404       .  A
C1143      F1150   1.357       .  S
C1144      C1145   1.412       .  A
C1144      H1149   1.083       .  S
C1145      C1146   1.405       .  A
C1146      F1147   1.357       .  S
C1151      C1152   1.398       .  A
C1151      C1156   1.389       .  A
C1151      H1158   1.084       .  S
C1152      C1153   1.409       .  A
C1153      C1154   1.405       .  A
C1153      F1160   1.357       .  S
C1154      C1155   1.404       .  A
C1154      H1159   1.083       .  S
C1155      C1156   1.410       .  A
C1156      F1157   1.359       .  S
C1161      C1162   1.407   1_556  A
C1161      C1166   1.407       .  A
C1161      H1168   1.083       .  S
C1162      C1163   1.401   1_545  A
C1163      C1164   1.388   1_554  A
C1163      F1170   1.359       .  S
C1164      C1165   1.402       .  A
C1164      H1169   1.084       .  S
C1165      C1166   1.406   1_565  A
C1166      F1167   1.356       .  S
C1171      C1172   1.409       .  A
C1171      C1176   1.408       .  A
C1171      H1178   1.083       .  S
C1172      C1173   1.412       .  A
C1173      C1174   1.402   1_556  A
C1173      F1180   1.357       .  S
C1174      C1175   1.402       .  A
C1174      H1179   1.084       .  S
C1175      C1176   1.407   1_554  A
C1176      F1177   1.357       .  S
C1181      C1182   1.407       .  A
C1181      C1186   1.402       .  A
C1181      H1188   1.083       .  S
C1182      C1183   1.409       .  A
C1183      C1184   1.403       .  A
C1183      F1190   1.357       .  S
C1184      C1185   1.406       .  A
C1184      H1189   1.083       .  S
C1185      C1186   1.408       .  A
C1186      F1187   1.357       .  S
C1191      C1192   1.403       .  A
C1191      C1196   1.406       .  A
C1191      H1198   1.083       .  S
C1192      C1193   1.409       .  A
C1193      C1194   1.404       .  A
C1193      F1200   1.357       .  S
C1194      C1195   1.402       .  A
C1194      H1199   1.083       .  S
C1195      C1196   1.410       .  A
C1196      F1197   1.358       .  S
C1201      C1202   1.394       .  A
C1201      C1206   1.401       .  A
C1201      H1208   1.083       .  S
C1202      C1203   1.417       .  A
C1203      C1204   1.404       .  A
C1203      F1210   1.357       .  S
C1204      C1205   1.396       .  A
C1204      H1209   1.083       .  S
C1205      C1206   1.417       .  A
C1206      F1207   1.354       .  S
C1211      C1212   1.401       .  A
C1211      C1216   1.400       .  A
C1211      H1218   1.084       .  S
C1212      C1213   1.412       .  A
C1213      C1214   1.415       .  A
C1213      F1220   1.357       .  S
C1214      C1215   1.409       .  A
C1214      H1219   1.083       .  S
C1215      C1216   1.411       .  A
C1216      F1217   1.358       .  S
C1221      C1222   1.408   1_556  A
C1221      C1226   1.414       .  A
C1221      H1228   1.083       .  S
C1222      C1223   1.410       .  A
C1223      C1224   1.399   1_554  A
C1223      F1230   1.358       .  S
C1224      C1225   1.401       .  A
C1224      H1229   1.084       .  S
C1225      C1226   1.411       .  A
C1226      F1227   1.357       .  S
C1231      C1232   1.415   1_556  A
C1231      C1236   1.417       .  A
C1231      H1238   1.083       .  S
C1232      C1233   1.395       .  A
C1233      C1234   1.378   1_554  A
C1233      F1240   1.361       .  S
C1234      C1235   1.412       .  A
C1234      H1239   1.084       .  S
C1235      C1236   1.407       .  A
C1236      F1237   1.356       .  S
C1241      C1242   1.405       .  A
C1241      C1246   1.397       .  A
C1241      H1248   1.083       .  S
C1242      C1243   1.407       .  A
C1243      C1244   1.397       .  A
C1243      F1250   1.357       .  S
C1244      C1245   1.405       .  A
C1244      H1249   1.083       .  S
C1245      C1246   1.408       .  A
C1246      F1247   1.357       .  S
C1251      C1252   1.405   1_455  A
C1251      C1256   1.403       .  A
C1251      H1258   1.083       .  S
C1252      C1253   1.411   1_655  A
C1253      C1254   1.396       .  A
C1253      F1260   1.357       .  S
C1254      C1255   1.402       .  A
C1254      H1259   1.083       .  S
C1255      C1256   1.411       .  A
C1256      F1257   1.357       .  S
C1261      C1262   1.401       .  A
C1261      C1266   1.398       .  A
C1261      H1268   1.084       .  S
C1262      C1263   1.408       .  A
C1263      C1264   1.409       .  A
C1263      F1270   1.357       .  S
C1264      C1265   1.410       .  A
C1264      H1269   1.083       .  S
C1265      C1266   1.411       .  A
C1266      F1267   1.357       .  S
C1271      C1272   1.406       .  A
C1271      C1276   1.406       .  A
C1271      H1278   1.083       .  S
C1272      C1273   1.402       .  A
C1273      C1274   1.387       .  A
C1273      F1280   1.359       .  S
C1274      C1275   1.402       .  A
C1274      H1279   1.084       .  S
C1275      C1276   1.406       .  A
C1276      F1277   1.357       .  S
C1281      C1282   1.409   1_565  A
C1281      C1286   1.410       .  A
C1281      H1288   1.083       .  S
C1282      C1283   1.402   1_554  A
C1283      C1284   1.396       .  A
C1283      F1290   1.358       .  S
C1284      C1285   1.408   1_545  A
C1284      H1289   1.083       .  S
C1285      C1286   1.408   1_556  A
C1286      F1287   1.357       .  S
C1291      C1292   1.392       .  A
C1291      C1296   1.390   1_554  A
C1291      H1298   1.083   1_554  S
C1292      C1293   1.418       .  A
C1293      C1294   1.399       .  A
C1293      F1300   1.357       .  S
C1294      C1295   1.396   1_554  A
C1294      H1299   1.083       .  S
C1295      C1296   1.417       .  A
C1296      F1297   1.356       .  S
C1301      C1302   1.411       .  A
C1301      C1306   1.386       .  A
C1301      H1308   1.083       .  S
C1302      C1303   1.406       .  A
C1303      C1304   1.410       .  A
C1303      F1310   1.356       .  S
C1304      C1305   1.408       .  A
C1304      H1309   1.083       .  S
C1305      C1306   1.393       .  A
C1306      F1307   1.359       .  S
C1311      C1312   1.406       .  A
C1311      C1316   1.398       .  A
C1311      H1318   1.083       .  S
C1312      C1313   1.408       .  A
C1313      C1314   1.388       .  A
C1313      F1320   1.358       .  S
C1314      C1315   1.396       .  A
C1314      H1319   1.084       .  S
C1315      C1316   1.399       .  A
C1316      F1317   1.357       .  S
C1321      C1322   1.409       .  A
C1321      C1326   1.399       .  A
C1321      H1328   1.083       .  S
C1322      C1323   1.407       .  A
C1323      C1324   1.404       .  A
C1323      F1330   1.357       .  S
C1324      C1325   1.406       .  A
C1324      H1329   1.083       .  S
C1325      C1326   1.400       .  A
C1326      F1327   1.357       .  S
C1331      C1332   1.400       .  A
C1331      C1336   1.402   1_455  A
C1331      H1338   1.083       .  S
C1332      C1333   1.405       .  A
C1333      C1334   1.397   1_455  A
C1333      F1340   1.358       .  S
C1334      C1335   1.402       .  A
C1334      H1339   1.083       .  S
C1335      C1336   1.408       .  A
C1336      F1337   1.357       .  S
C1341      C1342   1.391       .  A
C1341      C1346   1.387       .  A
C1341      H1348   1.084       .  S
C1342      C1343   1.415       .  A
C1343      C1344   1.394       .  A
C1343      F1350   1.358       .  S
C1344      C1345   1.395       .  A
C1344      H1349   1.083       .  S
C1345      C1346   1.417       .  A
C1346      F1347   1.358       .  S
C1351      C1352   1.409       .  A
C1351      C1356   1.394       .  A
C1351      H1358   1.082       .  S
C1352      C1353   1.409       .  A
C1353      C1354   1.413       .  A
C1353      F1360   1.356       .  S
C1354      C1355   1.409       .  A
C1354      H1359   1.082       .  S
C1355      C1356   1.401       .  A
C1356      F1357   1.359       .  S
