geometry optimzed in LAMMPS
_audit_creation_date              2020-12-01 
_audit_creation_method            'lammps2cif' 
_symmetry_space_group_name_H-M    'P1' 
_symmetry_Int_Tables_number       1 
_symmetry_cell_setting            triclinic 
loop_ 
_symmetry_equiv_pos_as_xyz 
  x,y,z 
_cell_length_a                    25.23235254 
_cell_length_b                    24.577004879770595 
_cell_length_c                    26.035426073360664 
_cell_angle_alpha                 90.9993004601035 
_cell_angle_beta                  90.54937138780636 
_cell_angle_gamma                 90.27429181472861 
loop_ 
_atom_site_label 
_atom_site_type_symbol 
_atom_site_fract_x 
_atom_site_fract_y 
_atom_site_fract_z 
_atom_site_charge 
O1          O  0.47498872  0.49718463  0.86124686    -0.79900
O2          O  0.57172457  0.55563885  0.05850658    -0.79900
O3          O  0.45372748  0.57335119  0.02001396    -0.79900
O4          O  0.58723188  0.56754668  0.94149828    -0.79900
O5          O  0.47220021  0.52050456  0.08294199    -0.80000
O6          O  0.57898232  0.50694545  0.87740336    -0.79900
O7          O  0.65058322  0.54275490  0.02472196    -0.79900
O8          O  0.45376415  0.56289717  0.91595528    -0.79900
C9          C  0.45864908  0.54538363  0.87032929     1.09800
C10         C  0.62186471  0.56722155  0.05750012     1.09700
C11         C  0.45132286  0.56375816  0.06715875     1.09800
C12         C  0.59237649  0.55414042  0.89441794     1.09700
O13         O  0.58039913  0.40380534  0.93297761    -0.79900
O14         O  0.48878457  0.41469217  0.04062829    -0.80000
O15         O  0.40819538  0.45612911  0.92141517    -0.79900
O16         O  0.60610350  0.44455513  0.04266730    -0.79900
O17         O  0.55683195  0.46281755  0.11005367    -0.79900
O18         O  0.47262103  0.39728902  0.91992759    -0.79900
O19         O  0.63915257  0.46701318  0.94457461    -0.80100
O20         O  0.41493633  0.46004087  0.02663987    -0.79900
Co21       Co  0.52643959  0.45166156  0.90221027     1.51500
Co22       Co  0.53048704  0.48220226  0.04510667     1.51700
Co23       Co  0.43765974  0.51271836  0.97143335     1.51600
Co24       Co  0.59079486  0.50885372  0.99209585     1.51500
O25         O  0.51537553  0.48970114  0.97045861    -1.41800
C26         C  0.62701043  0.42044804  0.92635307     1.09700
C27         C  0.43916303  0.41944748  0.04587749     1.09800
C28         C  0.42550209  0.40949210  0.90857318     1.09700
C29         C  0.59631793  0.43876160  0.09102523     1.09700
O30         O  0.54792201  0.88699967  0.43189221    -0.79900
O31         O  0.55522461  0.11290737  0.52535166    -0.79900
O32         O  0.57248500  0.03728021  0.35511749    -0.79900
O33         O  0.60473481  0.93911897  0.54936983    -0.79900
O34         O  0.58384376  0.08038635  0.42990612    -0.80000
O35         O  0.54120887  0.87918253  0.53495370    -0.79900
O36         O  0.61108612  0.04965769  0.54483695    -0.79900
O37         O  0.60317636  0.95590002  0.41971217    -0.79900
C38         C  0.59253762  0.90535155  0.41647666     1.09800
C39         C  0.59832473  0.09906688  0.54641652     1.09700
C40         C  0.59557393  0.07422507  0.38181904     1.09800
C41         C  0.58730565  0.89113108  0.55219085     1.09700
O42         O  0.44375104  0.94225573  0.53437091    -0.79900
O43         O  0.49114800  0.13310405  0.44544053    -0.80000
O44         O  0.50242449  0.95241694  0.37142128    -0.79900
O45         O  0.50387299  0.05593294  0.58602627    -0.79900
O46         O  0.45273587  0.06408967  0.51729994    -0.79900
O47         O  0.44574976  0.94657846  0.43199238    -0.79900
O48         O  0.50186072  0.94686753  0.59676305    -0.79900
O49         O  0.47761096  0.05741620  0.40021988    -0.79900
Co50       Co  0.49499313  0.91767220  0.48325770     1.51500
Co51       Co  0.51561304  0.06741674  0.47296545     1.51700
Co52       Co  0.54347124  0.00707634  0.41533340     1.51600
Co53       Co  0.55524117  0.99775230  0.56440199     1.51500
O54         O  0.52949060  0.99066032  0.49001469    -1.41800
C55         C  0.45551958  0.93463479  0.58071731     1.09700
C56         C  0.46764520  0.10846858  0.40876420     1.09800
C57         C  0.45774671  0.93596278  0.38641639     1.09700
C58         C  0.46110528  0.07211808  0.56492678     1.09700
O59         O  0.92390026  0.49098459  0.42850423    -0.79900
O60         O  0.14160920  0.49212554  0.52465291    -0.79900
O61         O  0.07225423  0.47105312  0.35331830    -0.79900
O62         O  0.97182748  0.43585802  0.54681573    -0.79900
O63         O  0.11255479  0.45929503  0.42789287    -0.80000
O64         O  0.91215730  0.49844216  0.53071517    -0.79900
O65         O  0.08033169  0.43352934  0.54229659    -0.79900
O66         O  0.99282551  0.43640815  0.41718156    -0.79900
C67         C  0.94333799  0.44535642  0.41385760     1.09800
C68         C  0.12859496  0.44699152  0.54325957     1.09700
C69         C  0.10877727  0.44864961  0.37907645     1.09800
C70         C  0.92435175  0.45190760  0.54807569     1.09700
O71         O  0.96913167  0.60183699  0.53284527    -0.79900
O72         O  0.16193376  0.55519134  0.44436705    -0.80000
O73         O  0.98706228  0.53794059  0.36974252    -0.79900
O74         O  0.08317668  0.54486787  0.58487750    -0.79900
O75         O  0.09305295  0.59530789  0.51629476    -0.79900
O76         O  0.97543763  0.59920882  0.42875356    -0.79900
O77         O  0.97553883  0.54262234  0.59414750    -0.79900
O78         O  0.08849206  0.56894814  0.39986940    -0.79900
Co79       Co  0.94947119  0.54748405  0.48025625     1.51500
Co80       Co  0.09770535  0.53000724  0.47172565     1.51700
Co81       Co  0.04087350  0.49986268  0.41385115     1.51600
Co82       Co  0.02789152  0.48964135  0.56216177     1.51500
O83         O  0.02212202  0.51529951  0.48808760    -1.41800
C84         C  0.95892412  0.58807445  0.57795848     1.09700
C85         C  0.13885277  0.57721544  0.40690979     1.09800
C86         C  0.96812817  0.58346083  0.38306383     1.09700
C87         C  0.10010828  0.58819161  0.56398264     1.09700
C88         C  0.79149564  0.31466243  0.29944994     0.03400
C89         C  0.76740430  0.33920023  0.25693440    -0.12800
C90         C  0.72301698  0.31479034  0.23300604     0.00900
C91         C  0.70397994  0.26497210  0.25078338    -0.11300
C92         C  0.72692970  0.24072583  0.29385376     0.03400
C93         C  0.77158899  0.26520556  0.31734733    -0.10700
H94         H  0.78075694  0.37895206  0.24493550     0.09000
H95         H  0.66858739  0.24722226  0.23335922     0.06500
H96         H  0.78918672  0.24736839  0.35120322     0.06300
C97         C  0.79114856  0.69066934  0.28608310     0.03400
C98         C  0.76673879  0.73324603  0.31352820    -0.12800
C99         C  0.72123491  0.75852950  0.29398232     0.00900
C100        C  0.70034473  0.74135988  0.24605531    -0.11300
C101        C  0.72391076  0.69834958  0.21802498     0.03400
C102        C  0.76956862  0.67367572  0.23840853    -0.10700
H103        H  0.78202067  0.74546047  0.35106058     0.09000
H104        H  0.66427562  0.75978474  0.23181378     0.06500
H105        H  0.78726410  0.63959266  0.21816773     0.06300
C106        C  0.72079494  0.32294568  0.74471299     0.03400
C107        C  0.76605308  0.34422635  0.72073961    -0.12800
C108        C  0.78129562  0.32566106  0.67175586     0.00900
C109        C  0.75297519  0.28327375  0.64777520    -0.11300
C110        C  0.70887452  0.26032143  0.67133598     0.03400
C111        C  0.69275693  0.27994869  0.71982223    -0.10700
H112        H  0.78852530  0.37685151  0.73919029     0.09000
H113        H  0.76335842  0.27009148  0.60921163     0.06500
H114        H  0.65719745  0.26353686  0.73680231     0.06300
C115        C  0.33051173  0.78148448  0.26670064     0.03400
C116        C  0.35661138  0.75264573  0.22728772    -0.12800
C117        C  0.33687932  0.70256355  0.20905745     0.00900
C118        C  0.29111224  0.68052010  0.23044369    -0.11300
C119        C  0.26509108  0.70762673  0.27063874     0.03400
C120        C  0.28313175  0.75939217  0.28652796    -0.10700
H121        H  0.39485872  0.76615848  0.21390776     0.09000
H122        H  0.27835595  0.63991009  0.21876783     0.06500
H123        H  0.26347011  0.77958490  0.31827835     0.06300
C124        C  0.35533014  0.67529149  0.71743428     0.03400
C125        C  0.30396420  0.65864419  0.70253334    -0.12800
C126        C  0.27033123  0.69421880  0.67597769     0.00900
C127        C  0.28830562  0.74714936  0.66616338    -0.11300
C128        C  0.34107384  0.76250757  0.67635834     0.03400
C129        C  0.37403063  0.72646732  0.70272623    -0.10700
H130        H  0.29055841  0.61801236  0.71120331     0.09000
H131        H  0.26175090  0.77541535  0.64762506     0.06500
H132        H  0.41475449  0.73769195  0.71130478     0.06300
C133        C  0.32368147  0.29706718  0.73627838     0.03400
C134        C  0.33720882  0.24480855  0.71849497    -0.12800
C135        C  0.32549112  0.22764436  0.66777419     0.00900
C136        C  0.29260937  0.26031562  0.63738527    -0.11300
C137        C  0.27308203  0.30996132  0.65678978     0.03400
C138        C  0.29019570  0.32884088  0.70555613    -0.10700
H139        H  0.36068530  0.21883697  0.74287674     0.09000
H140        H  0.28452837  0.24899637  0.59772252     0.06500
H141        H  0.27838085  0.36892089  0.71893014     0.06300
C142        C  0.70676738  0.67476939  0.74360769     0.03400
C143        C  0.68273329  0.71957915  0.72087286    -0.12800
C144        C  0.70731625  0.74650261  0.68067666     0.00900
C145        C  0.75792358  0.73039708  0.66538035    -0.11300
C146        C  0.78270654  0.68489644  0.68689711     0.03400
C147        C  0.75680320  0.65725270  0.72659889    -0.10700
H148        H  0.64362679  0.73212922  0.73310713     0.09000
H149        H  0.77637689  0.75080077  0.63360837     0.06500
H150        H  0.77356282  0.62044306  0.74199363     0.06300
C151        C  0.33375183  0.24462062  0.28377252     0.03400
C152        C  0.35628217  0.26197484  0.23771390    -0.12800
C153        C  0.33599509  0.30744288  0.21196148     0.00900
C154        C  0.29083826  0.33362472  0.23191691    -0.11300
C155        C  0.26569754  0.31435505  0.27600831     0.03400
C156        C  0.28682167  0.26891465  0.30077185    -0.10700
H157        H  0.39105852  0.24141734  0.22336372     0.09000
H158        H  0.27699396  0.37081202  0.21474614     0.06500
H159        H  0.26833143  0.25428550  0.33532802     0.06300
C160        C  0.15634442  0.35650771  0.57530706    -0.12000
C161        C  0.16829587  0.41182561  0.56876806     0.05000
C162        C  0.21646687  0.43277878  0.58941504    -0.07300
C163        C  0.25013214  0.39896736  0.61757070    -0.08100
C164        C  0.23748848  0.34396921  0.62494218    -0.02600
C165        C  0.19058505  0.32250164  0.60245652     0.04200
N166        N  0.17599920  0.26673363  0.60857613     0.66700
H167        H  0.11982060  0.33950225  0.55959249     0.15600
H168        H  0.28644064  0.41588181  0.63386080     0.15300
N169        N  0.23083133  0.48874451  0.58422915     0.74400
O170        O  0.15709057  0.25137248  0.65063232    -0.39000
O171        O  0.17417202  0.23512323  0.56987188    -0.39000
O172        O  0.22578268  0.52111698  0.62198213    -0.39700
O173        O  0.25778751  0.50313139  0.54617260    -0.39700
C174        C  0.14190069  0.61629946  0.64741547    -0.12000
C175        C  0.13564437  0.62520382  0.59439683     0.05000
C176        C  0.17035639  0.66223328  0.57063278    -0.07300
C177        C  0.21209831  0.68575583  0.59891463    -0.08100
C178        C  0.22037212  0.67424606  0.65102681    -0.02600
C179        C  0.18369748  0.64026476  0.67574606     0.04200
N180        N  0.18864038  0.62893927  0.72925176     0.66700
H181        H  0.11548799  0.58865754  0.66677538     0.15600
H182        H  0.23985972  0.71129206  0.57893057     0.15300
N183        N  0.16654945  0.67365461  0.51704331     0.74400
O184        O  0.17662557  0.66506604  0.76207608    -0.39000
O185        O  0.19563938  0.58062453  0.74342917    -0.39000
O186        O  0.13209036  0.70675101  0.50153316    -0.39700
O187        O  0.20403218  0.66032814  0.48771224    -0.39700
C188        C  0.14856921  0.65922455  0.35150742    -0.12000
C189        C  0.16994231  0.61142955  0.37192050     0.05000
C190        C  0.22179006  0.59600194  0.35832837    -0.07300
C191        C  0.25104420  0.62782730  0.32500972    -0.08100
C192        C  0.23010742  0.67556308  0.30441381    -0.02600
C193        C  0.17851996  0.69173139  0.31835327     0.04200
N194        N  0.15577926  0.74023166  0.29851740     0.66700
H195        H  0.10893437  0.67163968  0.36183125     0.15600
H196        H  0.29089599  0.61521227  0.31542906     0.15300
N197        N  0.24474858  0.54678158  0.37644151     0.74400
O198        O  0.13057093  0.73823087  0.25643867    -0.39000
O199        O  0.15240003  0.78204791  0.32708689    -0.39000
O200        O  0.24281106  0.50446655  0.34833683    -0.39700
O201        O  0.27584675  0.54851666  0.41468787    -0.39700
C202        C  0.22784365  0.35753043  0.35417472    -0.12000
C203        C  0.22295978  0.34625884  0.30138625     0.05000
C204        C  0.17891805  0.36719539  0.27449198    -0.07300
C205        C  0.14167119  0.39952367  0.30053870    -0.08100
C206        C  0.14683622  0.41100058  0.35355472    -0.02600
C207        C  0.19044576  0.38876242  0.38034365     0.04200
N208        N  0.19797637  0.39726030  0.43425697     0.66700
H209        H  0.26175361  0.34280956  0.37551446     0.15600
H210        H  0.10851636  0.41562548  0.27899137     0.15300
N211        N  0.17045503  0.35462558  0.22124290     0.74400
O212        O  0.18901782  0.35831292  0.46389381    -0.39000
O213        O  0.22607246  0.43680660  0.45012715    -0.39000
O214        O  0.14869291  0.31008042  0.20827097    -0.39700
O215        O  0.17489929  0.39165240  0.18856327    -0.39700
C216        C  0.91764451  0.61909477  0.66063545    -0.12000
C217        C  0.91767990  0.61816671  0.60663408     0.05000
C218        C  0.87379103  0.63995309  0.57996739    -0.07300
C219        C  0.83091928  0.66058296  0.60717496    -0.08100
C220        C  0.83062261  0.66231047  0.66114758    -0.02600
C221        C  0.87494929  0.64168077  0.68803592     0.04200
N222        N  0.87766341  0.64404516  0.74285933     0.66700
H223        H  0.95078132  0.60208981  0.68159219     0.15600
H224        H  0.79678692  0.67416875  0.58542088     0.15300
N225        N  0.87031158  0.63829333  0.52503145     0.74400
O226        O  0.87475377  0.60069006  0.76796702    -0.39000
O227        O  0.89268506  0.68743956  0.76527419    -0.39000
O228        O  0.84587891  0.59974543  0.50244235    -0.39700
O229        O  0.88352040  0.67958500  0.49994740    -0.39700
C230        C  0.80988601  0.41212766  0.63397966    -0.12000
C231        C  0.81989365  0.35693618  0.64148346     0.05000
C232        C  0.86240259  0.33208820  0.61548337    -0.07300
C233        C  0.89434610  0.36307466  0.58309120    -0.08100
C234        C  0.88478044  0.41886458  0.57599753    -0.02600
C235        C  0.84139911  0.44308479  0.60163613     0.04200
N236        N  0.82935701  0.49945595  0.59698515     0.66700
H237        H  0.77643466  0.43132434  0.65268158     0.15600
H238        H  0.92774235  0.34367915  0.56453652     0.15300
N239        N  0.87500576  0.27617644  0.62341476     0.74400
O240        O  0.80208026  0.51443771  0.55897522    -0.39000
O241        O  0.83152409  0.52961194  0.63665825    -0.39000
O242        O  0.87341906  0.24270588  0.58611605    -0.39700
O243        O  0.89491190  0.26197066  0.66573241    -0.39700
C244        C  0.85318328  0.40721475  0.40106120    -0.12000
C245        C  0.90711626  0.40539487  0.38842247     0.05000
C246        C  0.92335695  0.37065191  0.34767040    -0.07300
C247        C  0.88532725  0.34071706  0.31913799    -0.08100
C248        C  0.83132049  0.34499505  0.33053057    -0.02600
C249        C  0.81536932  0.37783220  0.37237707     0.04200
N250        N  0.76060371  0.38332696  0.38504746     0.66700
H251        H  0.83990169  0.43345843  0.43222150     0.15600
H252        H  0.89783911  0.31507282  0.28726190     0.15300
N253        N  0.97757582  0.36805657  0.33253999     0.74400
O254        O  0.73017849  0.40948650  0.35581575    -0.39000
O255        O  0.74515927  0.37118848  0.42937288    -0.39000
O256        O  0.00608789  0.32914806  0.34721730    -0.39700
O257        O  0.99403112  0.39874175  0.29770452    -0.39700
C258        C  0.88178920  0.69331008  0.32595089    -0.12000
C259        C  0.83800256  0.66250004  0.30828598     0.05000
C260        C  0.83970232  0.60520619  0.31193563    -0.07300
C261        C  0.88502763  0.58004095  0.33189981    -0.08100
C262        C  0.92802129  0.61097753  0.35100308    -0.02600
C263        C  0.92633044  0.66808284  0.34756933     0.04200
N264        N  0.96997548  0.70084013  0.36518943     0.66700
H265        H  0.88137028  0.73723218  0.32299800     0.15600
H266        H  0.88476069  0.53626277  0.33633219     0.15300
N267        N  0.79386451  0.57251352  0.30045870     0.74400
O268        O  0.01006291  0.70601939  0.33706263    -0.39000
O269        O  0.96505035  0.73115250  0.40444559    -0.39000
O270        O  0.79644030  0.53446640  0.26741645    -0.39700
O271        O  0.75388628  0.57582227  0.32910365    -0.39700
C272        C  0.62404405  0.19483500  0.56683570    -0.12000
C273        C  0.62936111  0.13930203  0.57747261     0.05000
C274        C  0.65960181  0.12396736  0.62096940    -0.07300
C275        C  0.68380644  0.16398745  0.65243491    -0.08100
C276        C  0.67774015  0.21926119  0.64186053    -0.02600
C277        C  0.64740885  0.23463467  0.59887559     0.04200
N278        N  0.63879895  0.29076886  0.58830004     0.66700
H279        H  0.60038414  0.20753785  0.53425338     0.15600
H280        H  0.70762268  0.15187957  0.68511997     0.15300
N281        N  0.66420496  0.06822990  0.63507879     0.74400
O282        O  0.66315356  0.31296431  0.55205322    -0.39000
O283        O  0.60183778  0.31596028  0.61056071    -0.39000
O284        O  0.70621631  0.04252833  0.62541425    -0.39700
O285        O  0.62960693  0.04717686  0.66334012    -0.39700
C286        C  0.41105730  0.18063661  0.65624976    -0.12000
C287        C  0.35673787  0.18230344  0.64441919     0.05000
C288        C  0.33617066  0.14486248  0.60730266    -0.07300
C289        C  0.37045656  0.10817978  0.58237442    -0.08100
C290        C  0.42473436  0.10698683  0.59481282    -0.02600
C291        C  0.44476232  0.14350131  0.63272652     0.04200
N292        N  0.50013845  0.14730234  0.64461404     0.66700
H293        H  0.42856228  0.21014306  0.68257132     0.15600
H294        H  0.35457382  0.08034999  0.55331866     0.15300
N295        N  0.28085743  0.14297452  0.59489541     0.74400
O296        O  0.52538124  0.18937269  0.63203892    -0.39000
O297        O  0.51968228  0.11666111  0.67818129    -0.39000
O298        O  0.26572553  0.14738735  0.54881051    -0.39700
O299        O  0.24809752  0.12842309  0.62835933    -0.39700
C300        C  0.38350443  0.15768293  0.29656306    -0.12000
C301        C  0.36294416  0.20626505  0.31731933     0.05000
C302        C  0.37345889  0.21945248  0.36958345    -0.07300
C303        C  0.40533500  0.18540005  0.39901765    -0.08100
C304        C  0.42818078  0.13836356  0.37763980    -0.02600
C305        C  0.41575468  0.12371299  0.32623843     0.04200
N306        N  0.43770493  0.07606948  0.30279628     0.66700
H307        H  0.37551576  0.14669661  0.25674062     0.15600
H308        H  0.41399525  0.19721485  0.43853399     0.15300
N309        N  0.35540064  0.26924957  0.39256442     0.74400
O310        O  0.41016915  0.03322968  0.29853038    -0.39000
O311        O  0.48310163  0.07792517  0.28299815    -0.39000
O312        O  0.32490729  0.26792682  0.43068047    -0.39700
O313        O  0.37643942  0.31379049  0.38026023    -0.39700
C314        C  0.65464907  0.15466555  0.39042157    -0.12000
C315        C  0.63538070  0.11138960  0.35940169     0.05000
C316        C  0.65063824  0.10855282  0.30730379    -0.07300
C317        C  0.68250979  0.14977483  0.28712964    -0.08100
C318        C  0.69935090  0.19430787  0.31778350    -0.02600
C319        C  0.68528334  0.19629941  0.37006806     0.04200
N320        N  0.69659130  0.24314932  0.40169455     0.66700
H321        H  0.64309032  0.15848216  0.43030357     0.15600
H322        H  0.69308961  0.14769092  0.24689902     0.15300
N323        N  0.63307739  0.06519285  0.27395433     0.74400
O324        O  0.66920410  0.28553759  0.39632915    -0.39000
O325        O  0.72593588  0.23870869  0.44090803    -0.39000
O326        O  0.59784148  0.07400168  0.24043961    -0.39700
O327        O  0.65913375  0.02153968  0.27179840    -0.39700
C328        C  0.37665155  0.87542752  0.58530203    -0.12000
C329        C  0.41841601  0.90178281  0.61160250     0.05000
C330        C  0.42869020  0.88763080  0.66303981    -0.07300
C331        C  0.40056432  0.84448066  0.68476965    -0.08100
C332        C  0.36343883  0.81371937  0.65563775    -0.02600
C333        C  0.35115405  0.83034317  0.60519920     0.04200
N334        N  0.31856658  0.79797127  0.57118436     0.66700
H335        H  0.36717473  0.88617167  0.54529616     0.15600
H336        H  0.40956867  0.83345888  0.72433406     0.15300
N337        N  0.46856797  0.91522869  0.69296259     0.74400
O338        O  0.27815670  0.81867090  0.55045767    -0.39000
O339        O  0.33549207  0.75280639  0.55455785    -0.39000
O340        O  0.45658861  0.95731170  0.71867193    -0.39700
O341        O  0.51274194  0.89274229  0.70057023    -0.39700
C342        C  0.62587911  0.76927047  0.63181381    -0.12000
C343        C  0.67671663  0.78485691  0.64902867     0.05000
C344        C  0.69870447  0.83411684  0.63218684    -0.07300
C345        C  0.67003440  0.86627249  0.59818590    -0.08100
C346        C  0.61851078  0.85149747  0.58187903    -0.02600
C347        C  0.59641125  0.80223283  0.59920386     0.04200
N348        N  0.54363877  0.78569257  0.58563769     0.66700
H349        H  0.60883914  0.73095762  0.64357539     0.15600
H350        H  0.68755860  0.90431019  0.58628997     0.15300
N351        N  0.74870239  0.85356518  0.65150720     0.74400
O352        O  0.53620322  0.75269150  0.54859502    -0.39000
O353        O  0.50648583  0.79473228  0.61667625    -0.39000
O354        O  0.78595021  0.86291458  0.62083040    -0.39700
O355        O  0.75271940  0.86976243  0.69764928    -0.39700
C356        C  0.65703428  0.88806240  0.34593960    -0.12000
C357        C  0.62938568  0.86838471  0.38856168     0.05000
C358        C  0.63464504  0.81293148  0.40094422    -0.07300
C359        C  0.66588837  0.77840176  0.37042126    -0.08100
C360        C  0.69160959  0.79766629  0.32679549    -0.02600
C361        C  0.68756624  0.85317944  0.31492555     0.04200
N362        N  0.71461956  0.87474423  0.27179773     0.66700
H363        H  0.65360180  0.93042058  0.33562971     0.15600
H364        H  0.66915313  0.73585582  0.38023066     0.15300
N365        N  0.60948316  0.79110818  0.44496290     0.74400
O366        O  0.68981062  0.88135411  0.23008547    -0.39000
O367        O  0.75999695  0.89576786  0.27800585    -0.39000
O368        O  0.56398150  0.77002399  0.44012578    -0.39700
O369        O  0.63731405  0.78053889  0.48400723    -0.39700
C370        C  0.42499328  0.89972175  0.30109201    -0.12000
C371        C  0.42314401  0.89924627  0.35493417     0.05000
C372        C  0.38830107  0.86229684  0.37869397    -0.07300
C373        C  0.35746853  0.82655992  0.34893393    -0.08100
C374        C  0.35877549  0.82662769  0.29511442    -0.02600
C375        C  0.39229874  0.86486839  0.27103194     0.04200
N376        N  0.39255412  0.87002850  0.21638691     0.66700
H377        H  0.45098949  0.92817047  0.28223704     0.15600
H378        H  0.33438603  0.79644099  0.36888618     0.15300
N379        N  0.38520485  0.85819631  0.43331031     0.74400
O380        O  0.35105023  0.88478399  0.19318415    -0.39000
O381        O  0.43569146  0.86731379  0.19234099    -0.39000
O382        O  0.34107331  0.86505619  0.45480669    -0.39700
O383        O  0.42254563  0.83619966  0.45785149    -0.39700
C384        C  0.71171012  0.35859230  0.14752709    -0.12000
C385        C  0.69089236  0.34508954  0.19544494     0.05000
C386        C  0.63881053  0.36064954  0.20763673    -0.07300
C387        C  0.60849410  0.38925285  0.17227068    -0.08100
C388        C  0.62909378  0.40373718  0.12442409    -0.02600
C389        C  0.68123709  0.38763632  0.11188655     0.04200
N390        N  0.70449976  0.40201717  0.06415331     0.66700
H391        H  0.75178253  0.34679553  0.13791236     0.15600
H392        H  0.56878614  0.40122202  0.18306652     0.15300
N393        N  0.61715743  0.35022126  0.25707898     0.74400
O394        O  0.73015962  0.44599689  0.06093532    -0.39000
O395        O  0.70666421  0.36721258  0.02805457    -0.39000
O396        O  0.62361065  0.38470190  0.29308954    -0.39700
O397        O  0.58472268  0.31154453  0.26237250    -0.39700
C398        C  0.64246483  0.66132027  0.17469413    -0.12000
C399        C  0.69671752  0.67345698  0.17191392     0.05000
C400        C  0.72472455  0.65553933  0.12801317    -0.07300
C401        C  0.69934013  0.62251383  0.09047185    -0.08100
C402        C  0.64559035  0.60781833  0.09470060    -0.02600
C403        C  0.61682476  0.62931614  0.13684449     0.04200
N404        N  0.56201634  0.61712251  0.14359724     0.66700
H405        H  0.62009424  0.67426026  0.20802487     0.15600
H406        H  0.72211108  0.60798554  0.05798454     0.15300
N407        N  0.77867506  0.67137742  0.12052043     0.74400
O408        O  0.54909255  0.57523938  0.16797382    -0.39000
O409        O  0.52828412  0.65409874  0.13681894    -0.39000
O410        O  0.81400061  0.63555319  0.11547361    -0.39700
O411        O  0.78950741  0.72029574  0.11083350    -0.39700
C412        C  0.42054874  0.58798331  0.15548442    -0.12000
C413        C  0.42255621  0.60079048  0.10305071     0.05000
C414        C  0.39656893  0.64842915  0.08629957    -0.07300
C415        C  0.37006929  0.68191691  0.12160947    -0.08100
C416        C  0.36855104  0.66889506  0.17355936    -0.02600
C417        C  0.39461965  0.62197717  0.19081653     0.04200
N418        N  0.39594456  0.60916361  0.24429724     0.66700
H419        H  0.44010160  0.55191732  0.16946212     0.15600
H420        H  0.34960437  0.71774013  0.10820259     0.15300
N421        N  0.39579001  0.66321396  0.03353956     0.74400
O422        O  0.38160391  0.56270472  0.25886709    -0.39000
O423        O  0.41454550  0.64312247  0.27672936    -0.39000
O424        O  0.35913357  0.64544263  0.00439830    -0.39700
O425        O  0.42424419  0.70237654  0.01925285    -0.39700
C426        C  0.44267244  0.35980383  0.12162319    -0.12000
C427        C  0.41194284  0.38338361  0.08266109     0.05000
C428        C  0.35632231  0.37750822  0.08435731    -0.07300
C429        C  0.33280133  0.35036935  0.12536770    -0.08100
C430        C  0.36337946  0.33032237  0.16633948    -0.02600
C431        C  0.41927085  0.33477176  0.16363993     0.04200
N432        N  0.45301873  0.31866728  0.20506083     0.66700
H433        H  0.48541514  0.36440612  0.12179110     0.15600
H434        H  0.29003105  0.34626055  0.12577097     0.15300
N435        N  0.32297375  0.39862627  0.04488634     0.74400
O436        O  0.48706317  0.28198518  0.19757473    -0.39000
O437        O  0.45565698  0.34767069  0.24548752    -0.39000
O438        O  0.29958953  0.36587882  0.01438598    -0.39700
O439        O  0.30694502  0.44709489  0.04849233    -0.39700
C440        C  0.69672751  0.64210807  0.83287279    -0.12000
C441        C  0.67696853  0.64445245  0.78248563     0.05000
C442        C  0.62721582  0.62071841  0.77046110    -0.07300
C443        C  0.59889172  0.59396968  0.80840358    -0.08100
C444        C  0.61901045  0.59068082  0.85859140    -0.02600
C445        C  0.66808889  0.61558213  0.87100931     0.04200
N446        N  0.69102661  0.61103695  0.92111254     0.66700
H447        H  0.73465222  0.66068828  0.84252580     0.15600
H448        H  0.56160942  0.57427633  0.79823650     0.15300
N449        N  0.60603574  0.62139514  0.71934265     0.74400
O450        O  0.71919266  0.57030271  0.93143449    -0.39000
O451        O  0.69084443  0.65152435  0.95157780    -0.39000
O452        O  0.62073798  0.58591855  0.68696121    -0.39700
O453        O  0.56579355  0.64990109  0.70971940    -0.39700
C454        C  0.68288111  0.31465826  0.83342856    -0.12000
C455        C  0.70114002  0.34802567  0.79382793     0.05000
C456        C  0.69979184  0.40525967  0.80161247    -0.07300
C457        C  0.68115750  0.42739256  0.84798532    -0.08100
C458        C  0.65992993  0.39417500  0.88603998    -0.02600
C459        C  0.66161875  0.33720327  0.87876642     0.04200
N460        N  0.64174584  0.30173211  0.91704349     0.66700
H461        H  0.68419078  0.27079449  0.82880749     0.15600
H462        H  0.67866303  0.47126933  0.85204780     0.15300
N463        N  0.71152568  0.44170776  0.76091001     0.74400
O464        O  0.59540049  0.28261639  0.91261054    -0.39000
O465        O  0.67335353  0.28173844  0.94938446    -0.39000
O466        O  0.68040857  0.44429776  0.72279316    -0.39700
O467        O  0.74717602  0.47748519  0.76709581    -0.39700
C468        C  0.31764239  0.35268383  0.81790396    -0.12000
C469        C  0.34813650  0.32024732  0.78453932     0.05000
C470        C  0.40253608  0.31305211  0.79648990    -0.07300
C471        C  0.42486109  0.33856792  0.83995653    -0.08100
C472        C  0.39550261  0.37433009  0.87110832    -0.02600
C473        C  0.34076042  0.38054497  0.86017668     0.04200
N474        N  0.30797331  0.41552242  0.89059378     0.66700
H475        H  0.27575981  0.35808527  0.81012373     0.15600
H476        H  0.46702707  0.33370323  0.84662750     0.15300
N477        N  0.43735255  0.28465217  0.76242431     0.74400
O478        O  0.30890691  0.46607750  0.88292982    -0.39000
O479        O  0.26869401  0.39535390  0.91323055    -0.39000
O480        O  0.45292606  0.30770560  0.72230459    -0.39700
O481        O  0.46140454  0.24300514  0.77788704    -0.39700
C482        C  0.42144685  0.55488107  0.78179163    -0.12000
C483        C  0.43992079  0.57968766  0.82768505     0.05000
C484        C  0.43537644  0.63665937  0.83384745    -0.07300
C485        C  0.40925392  0.66680464  0.79656150    -0.08100
C486        C  0.38825452  0.64177389  0.75202826    -0.02600
C487        C  0.39618421  0.58549353  0.74377584     0.04200
N488        N  0.37986550  0.55921859  0.69674519     0.66700
H489        H  0.42546106  0.51135434  0.77584135     0.15600
H490        H  0.40396974  0.71007894  0.80332815     0.15300
N491        N  0.45610635  0.66463105  0.87825031     0.74400
O492        O  0.40323191  0.57033705  0.65556318    -0.39000
O493        O  0.34792816  0.51956752  0.69748697    -0.39000
O494        O  0.50408517  0.67935225  0.87927875    -0.39700
O495        O  0.42454955  0.68437317  0.91080883    -0.39700
loop_ 
_geom_bond_atom_site_label_1 
_geom_bond_atom_site_label_2 
_geom_bond_distance 
_geom_bond_site_symmetry_2 
_ccdc_geom_bond_type 
O1            C9   1.275       .  A
O1          Co21   2.026       .  S
O2           C10   1.296       .  A
O2          Co22   2.101       .  S
O3           C11   1.256       .  A
O3          Co23   1.976   1_554  S
O4           C12   1.272       .  A
O4          Co24   1.972       .  S
O5           C11   1.262       .  A
O5          Co22   2.007       .  S
O6           C12   1.277       .  A
O6          Co21   2.013       .  S
O7           C10   1.270       .  A
O7          Co24   1.905   1_554  S
O8            C9   1.264       .  A
O8          Co23   1.960       .  S
C9          C483   1.481       .  S
C10         C402   1.497       .  S
C11         C413   1.489       .  S
C12         C444   1.471       .  S
O13          C26   1.258       .  A
O13         Co21   1.976       .  S
O14          C27   1.267       .  A
O14         Co22   1.962       .  S
O15          C28   1.269       .  A
O15         Co23   2.023       .  S
O16          C29   1.295       .  A
O16         Co24   2.109   1_554  S
O17          C29   1.262       .  A
O17         Co22   1.881       .  S
O18          C28   1.261       .  A
O18         Co21   1.964       .  S
O19          C26   1.266       .  A
O19         Co24   2.018       .  S
O20          C27   1.280       .  A
O20         Co23   2.036   1_554  S
Co21         O25   2.016       .  S
Co22         O25   1.989   1_554  S
Co23         O25   2.044       .  S
Co24         O25   2.030       .  S
C26         C458   1.485       .  S
C27         C427   1.487       .  S
C28         C472   1.490       .  S
C29         C388   1.483       .  S
O30          C38   1.281       .  A
O30         Co50   2.037       .  S
O31          C39   1.264       .  A
O31         Co51   2.005       .  S
O32          C40   1.270       .  A
O32         Co52   1.898       .  S
O33          C41   1.260       .  A
O33         Co53   1.948       .  S
O34          C40   1.296       .  A
O34         Co51   2.090       .  S
O35          C41   1.274       .  A
O35         Co50   2.023       .  S
O36          C39   1.258       .  A
O36         Co53   1.973   1_545  S
O37          C38   1.271       .  A
O37         Co52   1.971   1_565  S
C38         C357   1.489       .  S
C39         C273   1.482       .  S
C40         C315   1.485       .  S
C41         C346   1.479       .  S
O42          C55   1.257       .  A
O42         Co50   1.955       .  S
O43          C56   1.263       .  A
O43         Co51   1.882       .  S
O44          C57   1.263       .  A
O44         Co52   2.024   1_565  S
O45          C58   1.275       .  A
O45         Co53   2.011   1_545  S
O46          C58   1.268       .  A
O46         Co51   1.973       .  S
O47          C57   1.251       .  A
O47         Co50   1.960       .  S
O48          C55   1.271       .  A
O48         Co53   2.032       .  S
O49          C56   1.297       .  A
O49         Co52   2.115       .  S
Co50         O54   1.994       .  S
Co51         O54   1.978   1_545  S
Co52         O54   2.027   1_545  S
Co53         O54   2.041       .  S
C55         C329   1.485       .  S
C56         C304   1.483       .  S
C57         C371   1.484       .  S
C58         C290   1.476       .  S
O59          C67   1.280       .  A
O59         Co79   2.017       .  S
O60          C68   1.261       .  A
O60         Co80   2.005       .  S
O61          C69   1.268       .  A
O61         Co81   1.898       .  S
O62          C70   1.264       .  A
O62         Co82   1.965   1_655  S
O63          C69   1.296       .  A
O63         Co80   2.100       .  S
O64          C70   1.275       .  A
O64         Co79   2.033       .  S
O65          C68   1.260       .  A
O65         Co82   1.981       .  S
O66          C67   1.271       .  A
O66         Co81   1.974   1_655  S
C67         C245   1.482       .  S
C68         C161   1.486       .  S
C69         C206   1.490       .  S
C70         C234   1.487       .  S
O71          C84   1.257       .  A
O71         Co79   1.955       .  S
O72          C85   1.262       .  A
O72         Co80   1.883       .  S
O73          C86   1.263       .  A
O73         Co81   2.014   1_655  S
O74          C87   1.278       .  A
O74         Co82   2.019       .  S
O75          C87   1.268       .  A
O75         Co80   1.969       .  S
O76          C86   1.256       .  A
O76         Co79   1.978       .  S
O77          C84   1.272       .  A
O77         Co82   2.033   1_655  S
O78          C85   1.297       .  A
O78         Co81   2.114       .  S
Co79         O83   2.010   1_655  S
Co80         O83   1.991       .  S
Co81         O83   2.024       .  S
Co82         O83   2.044       .  S
C84         C217   1.480       .  S
C85         C189   1.479       .  S
C86         C262   1.479       .  S
C87         C175   1.487       .  S
C88         C248   1.475       .  S
C88          C89   1.404       .  A
C88          C93   1.402       .  A
C89          C90   1.403       .  A
C89          H94   1.084       .  S
C90         C385   1.478       .  S
C90          C91   1.401       .  A
C91          C92   1.401       .  A
C91          H95   1.084       .  S
C92         C318   1.483       .  S
C92          C93   1.405       .  A
C93          H96   1.084       .  S
C97         C259   1.490       .  S
C97          C98   1.405       .  A
C97         C102   1.407       .  A
C98          C99   1.404       .  A
C98         H103   1.084       .  S
C99         C360   1.485       .  S
C99         C100   1.407       .  A
C100        C101   1.411       .  A
C100        H104   1.084       .  S
C101        C399   1.497       .  S
C101        C102   1.408       .  A
C102        H105   1.082       .  S
C106        C455   1.500       .  S
C106        C107   1.409       .  A
C106        C111   1.413       .  A
C107        C108   1.405       .  A
C107        H112   1.083       .  S
C108        C231   1.480       .  S
C108        C109   1.395       .  A
C109        C110   1.397       .  A
C109        H113   1.085       .  S
C110        C276   1.476       .  S
C110        C111   1.408       .  A
C111        H114   1.083       .  S
C115        C374   1.497       .  S
C115        C116   1.408       .  A
C115        C120   1.416       .  A
C116        C117   1.399       .  A
C116        H121   1.082       .  S
C117        C416   1.474       .  S
C117        C118   1.398       .  A
C118        C119   1.401       .  A
C118        H122   1.085       .  S
C119        C192   1.485       .  S
C119        C120   1.403       .  A
C120        H123   1.082       .  S
C124        C486   1.483       .  S
C124        C125   1.406       .  A
C124        C129   1.402       .  A
C125        C126   1.407       .  A
C125        H130   1.081       .  S
C126        C178   1.490       .  S
C126        C127   1.404       .  A
C127        C128   1.404       .  A
C127        H131   1.084       .  S
C128        C332   1.489       .  S
C128        C129   1.402       .  A
C129        H132   1.083       .  S
C133        C469   1.497       .  S
C133        C134   1.402       .  A
C133        C138   1.407       .  A
C134        C135   1.408       .  A
C134        H139   1.083       .  S
C135        C287   1.492       .  S
C135        C136   1.405       .  A
C136        C137   1.406       .  A
C136        H140   1.082       .  S
C137        C164   1.487       .  S
C137        C138   1.407       .  A
C138        H141   1.083       .  S
C142        C441   1.477       .  S
C142        C143   1.398       .  A
C142        C147   1.409       .  A
C143        C144   1.397       .  A
C143        H148   1.084       .  S
C144        C343   1.478       .  S
C144        C145   1.398       .  A
C145        C146   1.406       .  A
C145        H149   1.083       .  S
C146        C220   1.493       .  S
C146        C147   1.411       .  A
C147        H150   1.082       .  S
C151        C301   1.489       .  S
C151        C152   1.404       .  A
C151        C156   1.401       .  A
C152        C153   1.409       .  A
C152        H157   1.081       .  S
C153        C430   1.497       .  S
C153        C154   1.410       .  A
C154        C155   1.405       .  A
C154        H158   1.082       .  S
C155        C203   1.489       .  S
C155        C156   1.404       .  A
C156        H159   1.084       .  S
C160        C161   1.405       .  A
C160        C165   1.400       .  A
C160        H167   1.084       .  S
C161        C162   1.415       .  A
C162        C163   1.402       .  A
C162        N169   1.430       .  S
C163        C164   1.404       .  A
C163        H168   1.084       .  S
C164        C165   1.411       .  A
C165        N166   1.429       .  S
N166        O170   1.262       .  A
N166        O171   1.262       .  A
N169        O173   1.262       .  A
N169        O172   1.262       .  A
C174        C175   1.409       .  A
C174        C179   1.403       .  A
C174        H181   1.083       .  S
C175        C176   1.414       .  A
C176        C177   1.396       .  A
C176        N183   1.430       .  S
C177        C178   1.405       .  A
C177        H182   1.081       .  S
C178        C179   1.411       .  A
C179        N180   1.430       .  S
N180        O184   1.262       .  A
N180        O185   1.262       .  A
N183        O187   1.262       .  A
N183        O186   1.262       .  A
C188        C189   1.406       .  A
C188        C193   1.409       .  A
C188        H195   1.082       .  S
C189        C190   1.410       .  A
C190        C191   1.393       .  A
C190        N197   1.429       .  S
C191        C192   1.402       .  A
C191        H196   1.084       .  S
C192        C193   1.412       .  A
C193        N194   1.428       .  S
N194        O198   1.262       .  A
N194        O199   1.262       .  A
N197        O201   1.262       .  A
N197        O200   1.262       .  A
C202        C203   1.401       .  A
C202        C207   1.395       .  A
C202        H209   1.083       .  S
C203        C204   1.412       .  A
C204        C205   1.405       .  A
C204        N211   1.429       .  S
C205        C206   1.409       .  A
C205        H210   1.083       .  S
C206        C207   1.414       .  A
C207        N208   1.426       .  S
N208        O212   1.261       .  A
N208        O213   1.262       .  A
N211        O215   1.262       .  A
N211        O214   1.262       .  A
C216        C217   1.406       .  A
C216        C221   1.409       .  A
C216        H223   1.084       .  S
C217        C218   1.414       .  A
C218        C219   1.392       .  A
C218        N225   1.432       .  S
C219        C220   1.405       .  A
C219        H224   1.084       .  S
C220        C221   1.415       .  A
C221        N222   1.428       .  S
N222        O226   1.262       .  A
N222        O227   1.262       .  A
N225        O229   1.262       .  A
N225        O228   1.262       .  A
C230        C231   1.398       .  A
C230        C235   1.396       .  A
C230        H237   1.084       .  S
C231        C232   1.410       .  A
C232        C233   1.404       .  A
C232        N239   1.430       .  S
C233        C234   1.408       .  A
C233        H238   1.084       .  S
C234        C235   1.416       .  A
C235        N236   1.427       .  S
N236        O240   1.261       .  A
N236        O241   1.261       .  A
N239        O243   1.262       .  A
N239        O242   1.262       .  A
C244        C245   1.404       .  A
C244        C249   1.397       .  A
C244        H251   1.084       .  S
C245        C246   1.415       .  A
C246        C247   1.405       .  A
C246        N253   1.429       .  S
C247        C248   1.401       .  A
C247        H252   1.084       .  S
C248        C249   1.408       .  A
C249        N250   1.430       .  S
N250        O254   1.262       .  A
N250        O255   1.262       .  A
N253        O257   1.262       .  A
N253        O256   1.262   1_655  A
C258        C259   1.406       .  A
C258        C263   1.404       .  A
C258        H265   1.084       .  S
C259        C260   1.414       .  A
C260        C261   1.403       .  A
C260        N267   1.431       .  S
C261        C262   1.404       .  A
C261        H266   1.084       .  S
C262        C263   1.409       .  A
C263        N264   1.428       .  S
N264        O268   1.262   1_655  A
N264        O269   1.262       .  A
N267        O271   1.262       .  A
N267        O270   1.262       .  A
C272        C273   1.404       .  A
C272        C277   1.399       .  A
C272        H279   1.084       .  S
C273        C274   1.417       .  A
C274        C275   1.403       .  A
C274        N281   1.429       .  S
C275        C276   1.400       .  A
C275        H280   1.084       .  S
C276        C277   1.408       .  A
C277        N278   1.429       .  S
N278        O282   1.262       .  A
N278        O283   1.262       .  A
N281        O285   1.262       .  A
N281        O284   1.262       .  A
C286        C287   1.403       .  A
C286        C291   1.389       .  A
C286        H293   1.079       .  S
C287        C288   1.416       .  A
C288        C289   1.407       .  A
C288        N295   1.430       .  S
C289        C290   1.405       .  A
C289        H294   1.084       .  S
C290        C291   1.411       .  A
C291        N292   1.430       .  S
N292        O296   1.262       .  A
N292        O297   1.262       .  A
N295        O299   1.262       .  A
N295        O298   1.262       .  A
C300        C301   1.406       .  A
C300        C305   1.405       .  A
C300        H307   1.084       .  S
C301        C302   1.416       .  A
C302        C303   1.397       .  A
C302        N309   1.431       .  S
C303        C304   1.403       .  A
C303        H308   1.084       .  S
C304        C305   1.412       .  A
C305        N306   1.428       .  S
N306        O310   1.261       .  A
N306        O311   1.262       .  A
N309        O313   1.262       .  A
N309        O312   1.262       .  A
C314        C315   1.406       .  A
C314        C319   1.394       .  A
C314        H321   1.084       .  S
C315        C316   1.414       .  A
C316        C317   1.403       .  A
C316        N323   1.429       .  S
C317        C318   1.405       .  A
C317        H322   1.084       .  S
C318        C319   1.410       .  A
C319        N320   1.430       .  S
N320        O324   1.262       .  A
N320        O325   1.262       .  A
N323        O327   1.262       .  A
N323        O326   1.262       .  A
C328        C329   1.401       .  A
C328        C333   1.389       .  A
C328        H335   1.103       .  S
C329        C330   1.411       .  A
C330        C331   1.403       .  A
C330        N337   1.428       .  S
C331        C332   1.409       .  A
C331        H336   1.092       .  S
C332        C333   1.414       .  A
C333        N334   1.431       .  S
N334        O338   1.262       .  A
N334        O339   1.262       .  A
N337        O341   1.262       .  A
N337        O340   1.262       .  A
C342        C343   1.404       .  A
C342        C347   1.396       .  A
C342        H349   1.084       .  S
C343        C344   1.408       .  A
C344        C345   1.396       .  A
C344        N351   1.431       .  S
C345        C346   1.408       .  A
C345        H350   1.084       .  S
C346        C347   1.413       .  A
C347        N348   1.430       .  S
N348        O352   1.261       .  A
N348        O353   1.262       .  A
N351        O355   1.262       .  A
N351        O354   1.262       .  A
C356        C357   1.408       .  A
C356        C361   1.405       .  A
C356        H363   1.083       .  S
C357        C358   1.413       .  A
C358        C359   1.403       .  A
C358        N365   1.427       .  S
C359        C360   1.402       .  A
C359        H364   1.084       .  S
C360        C361   1.408       .  A
C361        N362   1.428       .  S
N362        O366   1.262       .  A
N362        O367   1.262       .  A
N365        O369   1.261       .  A
N365        O368   1.262       .  A
C370        C371   1.403       .  A
C370        C375   1.409       .  A
C370        H377   1.083       .  S
C371        C372   1.415       .  A
C372        C373   1.391       .  A
C372        N379   1.430       .  S
C373        C374   1.402       .  A
C373        H378   1.083       .  S
C374        C375   1.420       .  A
C375        N376   1.431       .  S
N376        O380   1.262       .  A
N376        O381   1.262       .  A
N379        O383   1.262       .  A
N379        O382   1.262       .  A
C384        C385   1.403       .  A
C384        C389   1.406       .  A
C384        H391   1.084       .  S
C385        C386   1.408       .  A
C386        C387   1.393       .  A
C386        N393   1.430       .  S
C387        C388   1.405       .  A
C387        H392   1.084       .  S
C388        C389   1.415       .  A
C389        N390   1.429       .  S
N390        O394   1.262       .  A
N390        O395   1.261       .  A
N393        O397   1.262       .  A
N393        O396   1.262       .  A
C398        C399   1.402       .  A
C398        C403   1.401       .  A
C398        H405   1.084       .  S
C399        C400   1.414       .  A
C400        C401   1.407       .  A
C400        N407   1.430       .  S
C401        C402   1.408       .  A
C401        H406   1.083       .  S
C402        C403   1.417       .  A
C403        N404   1.427       .  S
N404        O408   1.262       .  A
N404        O409   1.262       .  A
N407        O411   1.262       .  A
N407        O410   1.262       .  A
C412        C413   1.408       .  A
C412        C417   1.401       .  A
C412        H419   1.083       .  S
C413        C414   1.418       .  A
C414        C415   1.400       .  A
C414        N421   1.427       .  S
C415        C416   1.396       .  A
C415        H420   1.084       .  S
C416        C417   1.408       .  A
C417        N418   1.433       .  S
N418        O422   1.262       .  A
N418        O423   1.263       .  A
N421        O425   1.261       .  A
N421        O424   1.262       .  A
C426        C427   1.406       .  A
C426        C431   1.399       .  A
C426        H433   1.084       .  S
C427        C428   1.411       .  A
C428        C429   1.404       .  A
C428        N435   1.428       .  S
C429        C430   1.408       .  A
C429        H434   1.084       .  S
C430        C431   1.416       .  A
C431        N432   1.430       .  S
N432        O436   1.262       .  A
N432        O437   1.262       .  A
N435        O439   1.262       .  A
N435        O438   1.261       .  A
C440        C441   1.401       .  A
C440        C445   1.402       .  A
C440        H447   1.084       .  S
C441        C442   1.412       .  A
C442        C443   1.397       .  A
C442        N449   1.430       .  S
C443        C444   1.401       .  A
C443        H448   1.084       .  S
C444        C445   1.411       .  A
C445        N446   1.428       .  S
N446        O450   1.262       .  A
N446        O451   1.262       .  A
N449        O453   1.262       .  A
N449        O452   1.262       .  A
C454        C455   1.408       .  A
C454        C459   1.407       .  A
C454        H461   1.083       .  S
C455        C456   1.418       .  A
C456        C457   1.402       .  A
C456        N463   1.432       .  S
C457        C458   1.403       .  A
C457        H462   1.084       .  S
C458        C459   1.411       .  A
C459        N460   1.428       .  S
N460        O464   1.262       .  A
N460        O465   1.262       .  A
N463        O467   1.262       .  A
N463        O466   1.262       .  A
C468        C469   1.406       .  A
C468        C473   1.406       .  A
C468        H475   1.083       .  S
C469        C470   1.417       .  A
C470        C471   1.397       .  A
C470        N477   1.430       .  S
C471        C472   1.404       .  A
C471        H476   1.084       .  S
C472        C473   1.417       .  A
C473        N474   1.430       .  S
N474        O478   1.262       .  A
N474        O479   1.262       .  A
N477        O481   1.262       .  A
N477        O480   1.262       .  A
C482        C483   1.406       .  A
C482        C487   1.404       .  A
C482        H489   1.084       .  S
C483        C484   1.412       .  A
C484        C485   1.394       .  A
C484        N491   1.428       .  S
C485        C486   1.401       .  A
C485        H490   1.084       .  S
C486        C487   1.412       .  A
C487        N488   1.430       .  S
N488        O492   1.262       .  A
N488        O493   1.262       .  A
N491        O495   1.261       .  A
N491        O494   1.262       .  A
