geometry optimzed in LAMMPS
_audit_creation_date              2020-12-01 
_audit_creation_method            'lammps2cif' 
_symmetry_space_group_name_H-M    'P1' 
_symmetry_Int_Tables_number       1 
_symmetry_cell_setting            triclinic 
loop_ 
_symmetry_equiv_pos_as_xyz 
  x,y,z 
_cell_length_a                    39.27852532 
_cell_length_b                    39.05714559479135 
_cell_length_c                    39.703965011601504 
_cell_angle_alpha                 89.95977491049855 
_cell_angle_beta                  90.05789221925379 
_cell_angle_gamma                 89.98101197008513 
loop_ 
_atom_site_label 
_atom_site_type_symbol 
_atom_site_fract_x 
_atom_site_fract_y 
_atom_site_fract_z 
_atom_site_charge 
O1          O  0.45066509  0.43302668  0.93574706    -0.75200
O2          O  0.48163265  0.46320615  0.89738324    -0.54100
C3          C  0.45817150  0.44172591  0.90530480     0.78500
O4          O  0.45595474  0.56631866  0.04984102    -0.59800
O5          O  0.48534979  0.53461072  0.08835131    -0.52900
C6          C  0.46307871  0.55735210  0.08029212     0.70500
O7          O  0.45602714  0.56712241  0.93548342    -0.74400
O8          O  0.48469852  0.53495969  0.89690814    -0.55000
C9          C  0.46314737  0.55820072  0.90500496     0.76500
O10         O  0.45411891  0.43072795  0.04949763    -0.59500
O11         O  0.48599829  0.46063812  0.08746441    -0.52700
C12         C  0.46314488  0.43845674  0.07976766     0.73100
Zr13       Zr  0.47003574  0.44809398  0.99252367     2.54700
O14         O  0.40813033  0.45168146  0.99348335    -0.80100
O15         O  0.47076592  0.38575078  0.99240885    -0.93500
Zr16       Zr  0.47284430  0.55044398  0.99269027     2.64700
O17         O  0.41083636  0.55228988  0.99197659    -0.98500
O18         O  0.47776575  0.61256965  0.99256799    -0.80500
O19         O  0.47013519  0.49938710  0.96050086    -0.83900
O20         O  0.47096359  0.49920846  0.02479808    -2.18600
O21         O  0.58853098  0.42750462  0.04835410    -0.67300
O22         O  0.55914061  0.45938412  0.08673423    -0.51800
C23         C  0.58072431  0.43597937  0.07880445     0.71500
O24         O  0.59183134  0.56318300  0.93470059    -0.60200
O25         O  0.55770402  0.53555277  0.89697038    -0.52200
C26         C  0.58160586  0.55664128  0.90453011     0.73300
O27         O  0.59234276  0.56432043  0.04838961    -0.71600
O28         O  0.55989768  0.53599715  0.08704780    -0.50300
C29         C  0.58324746  0.55753243  0.07882581     0.74700
O30         O  0.58979378  0.43109713  0.93359718    -0.66900
O31         O  0.55621896  0.46013340  0.89633189    -0.54100
C32         C  0.57975645  0.43854335  0.90346548     0.73100
Zr33       Zr  0.57170682  0.44525488  0.99136491     2.77500
O34         O  0.63349783  0.44203613  0.99484879    -0.97700
O35         O  0.56458166  0.38343545  0.98822296    -0.78500
Zr36       Zr  0.57465700  0.54720571  0.99177701     2.70100
O37         O  0.63644453  0.54233009  0.99285041    -0.79700
O38         O  0.57623843  0.60947436  0.98957765    -0.98800
Zr39       Zr  0.52127633  0.49799827  0.92891140     2.21500
Zr40       Zr  0.52275757  0.49807294  0.05582734     2.11100
O41         O  0.57391575  0.49617091  0.02395262    -2.47500
O42         O  0.57360626  0.49637671  0.95902206    -0.79500
O43         O  0.52124218  0.44631533  0.02436977    -0.71700
O44         O  0.52335856  0.54973379  0.96024796    -2.32700
O45         O  0.52040861  0.44588091  0.95970734    -2.28900
O46         O  0.52407069  0.54995553  0.02461272    -0.73500
H47         H  0.45150590  0.49954467  0.03967142     0.78500
H48         H  0.52372361  0.56946757  0.94562705     0.79600
H49         H  0.59354771  0.49556228  0.03863296     0.81800
H50         H  0.51969986  0.42640878  0.94479033     0.79400
H51         H  0.49034018  0.61802251  0.01351429     0.42500
H52         H  0.56364223  0.61700237  0.00985285     0.41400
H53         H  0.64150016  0.52709230  0.01216047     0.41900
H54         H  0.63917234  0.41862448  0.98712973     0.39100
H55         H  0.58780300  0.37411566  0.99140581     0.42200
H56         H  0.48148538  0.37938561  0.97073972     0.37000
H57         H  0.40293908  0.46953411  0.01040908     0.43100
H58         H  0.40370598  0.54045301  0.01287139     0.39500
H59         H  0.64171862  0.45724158  0.97663122     0.44400
H60         H  0.44658269  0.37911049  0.98980257     0.43100
H61         H  0.40513564  0.57665994  0.99589421     0.43300
H62         H  0.60028038  0.61538660  0.99432729     0.43600
O63         O  0.43236340  0.94138814  0.42645315    -0.75200
O64         O  0.46381607  0.90230712  0.45571934    -0.54100
C65         C  0.44136804  0.91043270  0.43347277     0.78500
O66         O  0.56651738  0.05723390  0.42502695    -0.59800
O67         O  0.53723140  0.09655767  0.45603922    -0.52900
C68         C  0.55944125  0.08814648  0.43376882     0.70500
O69         O  0.56411656  0.94241662  0.42314990    -0.74400
O70         O  0.53722057  0.90299298  0.45603226    -0.55000
C71         C  0.55789745  0.91146240  0.43237308     0.76500
O72         O  0.42837239  0.05725725  0.42825386    -0.59500
O73         O  0.46178070  0.09611369  0.45558342    -0.52700
C74         C  0.43813176  0.08804836  0.43469089     0.73100
Zr75       Zr  0.44695450  0.99958807  0.44403357     2.54700
O76         O  0.44746495  0.99967694  0.38266096    -0.80100
O77         O  0.38508289  0.99958406  0.44758444    -0.93500
Zr78       Zr  0.54813779  0.99988637  0.44047367     2.64700
O79         O  0.54227389  0.99994284  0.37939396    -0.98500
O80         O  0.61006171  0.99750998  0.43852540    -0.80500
O81         O  0.49773940  0.96673923  0.44197177    -0.83900
O82         O  0.49743708  0.03279968  0.44132365    -2.18600
O83         O  0.43311913  0.05728932  0.56038372    -0.67300
O84         O  0.46398088  0.09673358  0.53093385    -0.51800
C85         C  0.44176559  0.08823882  0.55320354     0.71500
O86         O  0.57053240  0.94390118  0.55710353    -0.60200
O87         O  0.53771967  0.90397143  0.53046565    -0.52200
C88         C  0.56145508  0.91284839  0.55102244     0.73300
O89         O  0.57193401  0.05935667  0.55239044    -0.71600
O90         O  0.53693620  0.09812272  0.52691698    -0.50300
C91         C  0.56210349  0.09015447  0.54601900     0.74700
O92         O  0.43456433  0.94184234  0.56119427    -0.66900
O93         O  0.46488239  0.90259425  0.53101880    -0.54100
C94         C  0.44294846  0.91092259  0.55355339     0.73100
Zr95       Zr  0.45069442  0.99971918  0.54410329     2.77500
O96         O  0.45471791  0.99979978  0.60531136    -0.97700
O97         O  0.38875129  0.99963443  0.54455552    -0.78500
Zr98       Zr  0.55229600  0.00110289  0.54062201     2.70100
O99         O  0.54914036  0.00419151  0.60175108    -0.79700
O100        O  0.61430415  0.99954379  0.54090918    -0.98800
Zr101      Zr  0.50017781  0.93501212  0.49293847     2.21500
Zr102      Zr  0.49927127  0.06476645  0.49223602     2.11100
O103        O  0.50121561  0.03313630  0.54330422    -2.47500
O104        O  0.50193519  0.96750923  0.54344411    -0.79500
O105        O  0.44792326  0.03276911  0.49405212    -0.71700
O106        O  0.55130109  0.96755816  0.49086874    -2.32700
O107        O  0.44824864  0.96650996  0.49420774    -2.28900
O108        O  0.55094681  0.03335825  0.49018287    -0.73500
H109        H  0.49680259  0.04773060  0.42195470     0.78500
H110        H  0.57102515  0.95282378  0.49034720     0.79600
H111        H  0.50189277  0.04811107  0.56262453     0.81800
H112        H  0.42881218  0.95138904  0.49481820     0.79400
H113        H  0.61668823  0.98404187  0.45862990     0.42500
H114        H  0.62114899  0.01543516  0.52269082     0.41400
H115        H  0.57201349  0.01203319  0.60884611     0.41100
H116        H  0.43321743  0.98917459  0.61305629     0.39100
H117        H  0.38226504  0.01300579  0.52434261     0.42200
H118        H  0.37939802  0.97890191  0.46085892     0.37000
H119        H  0.43196319  0.01842549  0.37582720     0.43100
H120        H  0.52642902  0.01898983  0.37436428     0.39500
H121        H  0.47247986  0.98258588  0.61051655     0.44400
H122        H  0.37736649  0.99424039  0.42443118     0.43100
H123        H  0.56461739  0.00795466  0.37098674     0.43300
H124        H  0.62104761  0.01132246  0.56196114     0.43600
O125        O  0.95219569  0.56803584  0.42267041    -0.75200
O126        O  0.91371059  0.53982986  0.45549823    -0.54100
C127        C  0.92158589  0.56112553  0.43213131     0.78500
O128        O  0.06775000  0.43211402  0.42551903    -0.59800
O129        O  0.10652942  0.46602070  0.45226182    -0.52900
C130        C  0.09837326  0.44195450  0.43170402     0.70500
O131        O  0.95309241  0.43599395  0.42383099    -0.74400
O132        O  0.91452251  0.46451404  0.45628373    -0.55000
C133        C  0.92249186  0.44287016  0.43323359     0.76500
O134        O  0.06754263  0.57153428  0.42272852    -0.59500
O135        O  0.10686726  0.54071167  0.45218598    -0.52700
C136        C  0.09841256  0.56330058  0.43016980     0.73100
Zr137      Zr  0.01035725  0.55316040  0.43882995     2.54700
O138        O  0.01143772  0.54864162  0.37767742    -0.80100
O139        O  0.00709661  0.61534268  0.43597524    -0.93500
Zr140      Zr  0.01077412  0.45129006  0.44077842     2.64700
O141        O  0.01170702  0.45038555  0.37941612    -0.98500
O142        O  0.00780383  0.38906626  0.44206759    -0.80500
O143        O  0.97764872  0.50212582  0.43944290    -0.83900
O144        O  0.04332444  0.50237674  0.43859430    -2.18600
O145        O  0.06947457  0.57142841  0.55655245    -0.67300
O146        O  0.10819617  0.54026532  0.52678279    -0.51800
C147        C  0.10020390  0.56273226  0.54914405     0.71500
O148        O  0.95485613  0.43386234  0.55655593    -0.60200
O149        O  0.91590295  0.46676416  0.52877755    -0.52200
C150        C  0.92412753  0.44305505  0.54960572     0.73300
O151        O  0.07072245  0.43528398  0.55485591    -0.71600
O152        O  0.10893477  0.46674791  0.52473253    -0.50300
C153        C  0.10136708  0.44378935  0.54659329     0.74700
O154        O  0.95448829  0.57327560  0.55595115    -0.66900
O155        O  0.91551845  0.53993873  0.52876197    -0.54100
C156        C  0.92370855  0.56383313  0.54951020     0.73100
Zr157      Zr  0.01186653  0.55547533  0.53934464     2.77500
O158        O  0.00967537  0.55848189  0.60057753    -0.97700
O159        O  0.01466682  0.61747055  0.53387935    -0.78500
Zr160      Zr  0.01221726  0.45295958  0.54137774     2.70100
O161        O  0.01106547  0.46039548  0.60222736    -0.79700
O162        O  0.01084036  0.39095563  0.54790376    -0.98800
Zr163      Zr  0.94719625  0.50305627  0.49118733     2.21500
Zr164      Zr  0.07547978  0.50363051  0.48944925     2.11100
O165        O  0.04450729  0.50425438  0.54095534    -2.47500
O166        O  0.97949517  0.50411452  0.54172431    -0.79500
O167        O  0.04387660  0.55547524  0.48864401    -0.71700
O168        O  0.97905116  0.45115393  0.49145657    -2.32700
O169        O  0.97858712  0.55507296  0.48954735    -2.28900
O170        O  0.04421071  0.45139667  0.49067685    -0.73500
H171        H  0.05798844  0.50212254  0.41905403     0.78500
H172        H  0.96436165  0.43136203  0.49174777     0.79600
H173        H  0.05960516  0.50440078  0.56020239     0.81800
H174        H  0.96368088  0.57469995  0.48931786     0.79400
H175        H  0.01718432  0.38270882  0.46435654     0.42500
H176        H  0.02613244  0.38217266  0.53009026     0.41400
H177        H  0.99045465  0.47434857  0.60648753     0.41100
H178        H  0.02262352  0.53820567  0.60834639     0.39100
H179        H  0.01160868  0.62181356  0.50950689     0.42200
H180        H  0.01250737  0.62089340  0.41223973     0.37000
H181        H  0.99215206  0.53332687  0.37211829     0.43100
H182        H  0.03357578  0.46120446  0.37307806     0.39500
H183        H  0.02418709  0.57827015  0.60663847     0.44400
H184        H  0.02710782  0.62348029  0.44885429     0.43100
H185        H  0.01464302  0.42591196  0.37357870     0.43300
H186        H  0.02311304  0.38640949  0.56924149     0.43600
C187        C  0.73095109  0.32024107  0.32020684     0.03200
C188        C  0.71427729  0.29287439  0.33614124    -0.13000
C189        C  0.68555445  0.27782605  0.32133522     0.00700
C190        C  0.67292502  0.29077934  0.29088254    -0.11500
C191        C  0.68926690  0.31818923  0.27486553     0.03200
C192        C  0.71870352  0.33231737  0.28915738    -0.10900
H193        H  0.72367584  0.28321098  0.36000729     0.08800
H194        H  0.64989916  0.28010145  0.28007484     0.06300
H195        H  0.73077141  0.35409331  0.27716371     0.06200
C196        C  0.73127975  0.68288725  0.31607551     0.03200
C197        C  0.72008882  0.67099057  0.28457360    -0.13000
C198        C  0.69095777  0.68503966  0.26940059     0.00700
C199        C  0.67420249  0.71251665  0.28513906    -0.11500
C200        C  0.68555229  0.72487803  0.31631671     0.03200
C201        C  0.71379322  0.70974797  0.33186170    -0.10900
H202        H  0.73266038  0.64926715  0.27302226     0.08800
H203        H  0.65159619  0.72347518  0.27373505     0.06300
H204        H  0.72220369  0.71896972  0.35623945     0.06200
C205        C  0.68330850  0.32794004  0.70130759     0.03200
C206        C  0.71306533  0.34147074  0.68720092    -0.13000
C207        C  0.72734776  0.32671495  0.65829739     0.00700
C208        C  0.71229620  0.29767625  0.64397398    -0.11500
C209        C  0.68228463  0.28418087  0.65762206     0.03200
C210        C  0.66782647  0.29951301  0.68619622    -0.10900
H211        H  0.72473924  0.36395435  0.69828219     0.08800
H212        H  0.72295609  0.28667981  0.62124519     0.06300
H213        H  0.64476243  0.28897667  0.69699910     0.06200
C214        C  0.33246521  0.71937438  0.30542257     0.03200
C215        C  0.30219707  0.70603497  0.31862941    -0.13000
C216        C  0.28910849  0.67508300  0.30637590     0.00700
C217        C  0.30586120  0.65795805  0.28018039    -0.11500
C218        C  0.33542221  0.67182349  0.26604803     0.03200
C219        C  0.34882938  0.70244287  0.27885611    -0.10900
H220        H  0.29010115  0.71851782  0.33986756     0.08800
H221        H  0.29597400  0.63381291  0.27091525     0.06300
H222        H  0.37247610  0.71250729  0.26886754     0.06200
C223        C  0.33708612  0.67152553  0.71741500     0.03200
C224        C  0.30807896  0.65618386  0.70341620    -0.13000
C225        C  0.29064858  0.67216035  0.67683510     0.00700
C226        C  0.30288397  0.70322929  0.66381518    -0.11500
C227        C  0.33280641  0.71785931  0.67670893     0.03200
C228        C  0.34931105  0.70227498  0.70401575    -0.10900
H229        H  0.29901443  0.63195501  0.71326456     0.08800
H230        H  0.29034823  0.71480596  0.64229933     0.06300
H231        H  0.37237799  0.71351008  0.71417656     0.06200
C232        C  0.33675260  0.33288845  0.71185894     0.03200
C233        C  0.31035172  0.34845073  0.69369846    -0.13000
C234        C  0.29497665  0.33127535  0.66667390     0.00700
C235        C  0.30675757  0.29874334  0.65724743    -0.11500
C236        C  0.33434717  0.28372988  0.67422312     0.03200
C237        C  0.34881190  0.30065258  0.70193613    -0.10900
H238        H  0.30124874  0.37355263  0.70107747     0.08800
H239        H  0.29560473  0.28597528  0.63565706     0.06300
H240        H  0.37005567  0.28914648  0.71523435     0.06200
C241        C  0.68716805  0.67952703  0.71056850     0.03200
C242        C  0.71699813  0.66615913  0.69634796    -0.13000
C243        C  0.73112334  0.68096196  0.66732192     0.00700
C244        C  0.71554038  0.70988513  0.65298813    -0.11500
C245        C  0.68520893  0.72296821  0.66664528     0.03200
C246        C  0.67127893  0.70772240  0.69546896    -0.10900
H247        H  0.72868867  0.64359694  0.70729942     0.08800
H248        H  0.72588946  0.72094124  0.63014435     0.06300
H249        H  0.64801658  0.71787457  0.70623558     0.06200
C250        C  0.33682685  0.28859325  0.31595149     0.03200
C251        C  0.35481468  0.30457080  0.28983431    -0.13000
C252        C  0.34221624  0.33443988  0.27495831     0.00700
C253        C  0.31186200  0.34892097  0.28668547    -0.11500
C254        C  0.29388921  0.33339860  0.31309335     0.03200
C255        C  0.30620108  0.30290691  0.32727704    -0.10900
H256        H  0.37834425  0.29344989  0.28067090     0.08800
H257        H  0.30235351  0.37231438  0.27535930     0.06300
H258        H  0.29283962  0.29124125  0.34822049     0.06200
C259        C  0.17449364  0.33328182  0.63239718    -0.17800
C260        C  0.14723853  0.34925732  0.61604717    -0.19900
C261        C  0.15222340  0.37990188  0.59828025     0.20700
C262        C  0.18494850  0.39482269  0.59725428    -0.02900
C263        C  0.21234461  0.37898952  0.61418340    -0.05900
C264        C  0.20710611  0.34787804  0.63154800     0.21000
C265        C  0.24488094  0.39438241  0.61392081     0.19200
C266        C  0.24979453  0.42523723  0.59645299    -0.17400
C267        C  0.22273655  0.44066794  0.57924949    -0.19600
C268        C  0.19026237  0.42565600  0.57952280     0.20600
C269        C  0.16294548  0.44110956  0.56264811    -0.32600
C270        C  0.13013844  0.42652464  0.56371962     0.01300
C271        C  0.12501717  0.39592989  0.58167247    -0.24000
C272        C  0.23450081  0.33207852  0.64800894    -0.28500
C273        C  0.26673716  0.34750620  0.64816019     0.07000
C274        C  0.27182085  0.37869529  0.63127960    -0.27200
H275        H  0.17002738  0.30956427  0.64585258     0.11700
H276        H  0.12225289  0.33757071  0.61721096     0.12900
H277        H  0.27457947  0.43740476  0.59604767     0.11900
H278        H  0.22716066  0.46445912  0.56589018     0.11200
H279        H  0.16717229  0.46488840  0.54917646     0.16600
H280        H  0.09990051  0.38446832  0.58259016     0.12500
H281        H  0.23068926  0.30814520  0.66134326     0.15300
H282        H  0.29681583  0.39048181  0.63147933     0.15100
C283        C  0.21789902  0.56080439  0.59313060    -0.17800
C284        C  0.24410856  0.57550010  0.61207677    -0.19900
C285        C  0.23936527  0.60725119  0.62788827     0.20700
C286        C  0.20776204  0.62423388  0.62494008    -0.02900
C287        C  0.18116967  0.60919960  0.60612221    -0.05900
C288        C  0.18641572  0.57748633  0.58990858     0.21000
C289        C  0.14944480  0.62595428  0.60340970     0.19200
C290        C  0.14465346  0.65763267  0.61944747    -0.17400
C291        C  0.17117864  0.67278477  0.63769849    -0.19600
C292        C  0.20286287  0.65639253  0.64045019     0.20600
C293        C  0.22991115  0.67176830  0.65794027    -0.32600
C294        C  0.26146217  0.65504427  0.66060643     0.01300
C295        C  0.26586844  0.62260249  0.64606281    -0.24000
C296        C  0.16008503  0.56290072  0.57085574    -0.28500
C297        C  0.12824516  0.57921199  0.56822921     0.07000
C298        C  0.12311092  0.61072819  0.58472222    -0.27200
H299        H  0.22226202  0.53636295  0.58097255     0.11700
H300        H  0.26821950  0.56216530  0.61410535     0.12900
H301        H  0.12044634  0.67082431  0.61767150     0.11900
H302        H  0.16694731  0.69739621  0.64956259     0.11200
H303        H  0.22660475  0.69678327  0.66931318     0.16600
H304        H  0.29035849  0.60990643  0.64795648     0.12500
H305        H  0.16420125  0.53845080  0.55859496     0.15300
H306        H  0.09870126  0.62355059  0.58280151     0.15100
C307        C  0.14222333  0.65879675  0.36044881    -0.17800
C308        C  0.16902453  0.67463030  0.34323307    -0.19900
C309        C  0.20128882  0.65922522  0.34210060     0.20700
C310        C  0.20662468  0.62757690  0.35852672    -0.02900
C311        C  0.17978523  0.61192328  0.37630945    -0.05900
C312        C  0.14736406  0.62749913  0.37711894     0.21000
C313        C  0.18543898  0.58067506  0.39326483     0.19200
C314        C  0.21762456  0.56516792  0.39207157    -0.17400
C315        C  0.24409147  0.58043194  0.37407973    -0.19600
C316        C  0.23882998  0.61156825  0.35728044     0.20600
C317        C  0.26530333  0.62707446  0.33943616    -0.32600
C318        C  0.26026332  0.65869161  0.32348872     0.01300
C319        C  0.22837576  0.67484626  0.32496079    -0.24000
C320        C  0.12072461  0.61150342  0.39462075    -0.28500
C321        C  0.12631600  0.58046559  0.41179742     0.07000
C322        C  0.15880894  0.56534591  0.41105352    -0.27200
H323        H  0.11750362  0.67111052  0.36085430     0.11700
H324        H  0.16449150  0.69887253  0.33071942     0.12900
H325        H  0.22229855  0.54116615  0.40497723     0.11900
H326        H  0.26872383  0.56794928  0.37340798     0.11200
H327        H  0.29014322  0.61496588  0.33848748     0.16600
H328        H  0.22472246  0.69933140  0.31258027     0.12500
H329        H  0.09577933  0.62337865  0.39515578     0.15300
H330        H  0.16331659  0.54126142  0.42391137     0.15100
C331        C  0.14835820  0.34250144  0.37203973    -0.17800
C332        C  0.17586016  0.32738752  0.35528978    -0.19900
C333        C  0.20569891  0.34615562  0.34922194     0.20700
C334        C  0.20774721  0.38059922  0.35974159    -0.02900
C335        C  0.18030764  0.39561168  0.37714263    -0.05900
C336        C  0.15043995  0.37649361  0.38334811     0.21000
C337        C  0.18294003  0.42967667  0.38860292     0.19200
C338        C  0.21236130  0.44876372  0.38178837    -0.17400
C339        C  0.23935611  0.43404754  0.36413975    -0.19600
C340        C  0.23742621  0.39993138  0.35333888     0.20600
C341        C  0.26495129  0.38460137  0.33689079    -0.32600
C342        C  0.26347703  0.35002889  0.32738478     0.01300
C343        C  0.23373596  0.33099669  0.33331433    -0.24000
C344        C  0.12338545  0.39169461  0.40096825    -0.28500
C345        C  0.12634823  0.42540828  0.41311169     0.07000
C346        C  0.15616760  0.44414299  0.40677536    -0.27200
H347        H  0.12562048  0.32747539  0.37650142     0.11700
H348        H  0.17385837  0.30096619  0.34721846     0.12900
H349        H  0.21454469  0.47504637  0.39024291     0.11900
H350        H  0.26192883  0.44921451  0.35932617     0.11200
H351        H  0.28804954  0.39916684  0.33259841     0.16600
H352        H  0.23260257  0.30435891  0.32571878     0.12500
H353        H  0.10036097  0.37717843  0.40573486     0.15300
H354        H  0.15834667  0.47034174  0.41555437     0.15100
C355        C  0.78146770  0.57854905  0.61497917    -0.17800
C356        C  0.80811126  0.56233882  0.59798294    -0.19900
C357        C  0.83814179  0.58021460  0.59050502     0.20700
C358        C  0.84123011  0.61493546  0.59983781    -0.02900
C359        C  0.81410087  0.63147722  0.61655563    -0.05900
C360        C  0.78426424  0.61302714  0.62444783     0.21000
C361        C  0.81681313  0.66641285  0.62533033     0.19200
C362        C  0.84665409  0.68442033  0.61729993    -0.17400
C363        C  0.87375161  0.66787859  0.60115167    -0.19600
C364        C  0.87138940  0.63310112  0.59249245     0.20600
C365        C  0.89856161  0.61616817  0.57657841    -0.32600
C366        C  0.89555220  0.58157850  0.56709171     0.01300
C367        C  0.86512604  0.56392034  0.57391122    -0.24000
C368        C  0.75765949  0.62939327  0.64151130    -0.28500
C369        C  0.76010653  0.66415113  0.65024879     0.07000
C370        C  0.78961773  0.68264358  0.64189688    -0.27200
H371        H  0.75862286  0.56412097  0.62066216     0.11700
H372        H  0.80529495  0.53574519  0.59083475     0.12900
H373        H  0.84912274  0.71127139  0.62368852     0.11900
H374        H  0.89658010  0.68230845  0.59542656     0.11200
H375        H  0.92179078  0.63003888  0.57101184     0.16600
H376        H  0.86264394  0.53725754  0.56673740     0.12500
H377        H  0.73467310  0.61527642  0.64750215     0.15300
H378        H  0.79145986  0.70947959  0.64862461     0.15100
C379        C  0.84318932  0.32186536  0.61044388    -0.17800
C380        C  0.87114684  0.33834613  0.59584520    -0.19900
C381        C  0.86979751  0.37347978  0.58852165     0.20700
C382        C  0.83979816  0.39209743  0.59554426    -0.02900
C383        C  0.81175546  0.37557420  0.61046189    -0.05900
C384        C  0.81351380  0.34029780  0.61806631     0.21000
C385        C  0.78208966  0.39445882  0.61806245     0.19200
C386        C  0.78039934  0.42939564  0.61013381    -0.17400
C387        C  0.80808552  0.44569262  0.59507861    -0.19600
C388        C  0.83787318  0.42731713  0.58789969     0.20600
C389        C  0.86577687  0.44361495  0.57321657    -0.32600
C390        C  0.89581583  0.42538395  0.56642335     0.01300
C391        C  0.89783454  0.39037076  0.57428237    -0.24000
C392        C  0.78567994  0.32423889  0.63346749    -0.28500
C393        C  0.75649366  0.34321020  0.64170093     0.07000
C394        C  0.75472491  0.37815195  0.63373608    -0.27200
H395        H  0.84488261  0.29476168  0.61604311     0.11700
H396        H  0.89387821  0.32364095  0.59040695     0.12900
H397        H  0.75772675  0.44414579  0.61571981     0.11900
H398        H  0.80628216  0.47271037  0.58921595     0.11200
H399        H  0.86422246  0.47067057  0.56724579     0.16600
H400        H  0.92087238  0.37620433  0.56862565     0.12500
H401        H  0.78686423  0.29721301  0.63963330     0.15300
H402        H  0.73187564  0.39255166  0.63962150     0.15100
C403        C  0.78074799  0.37506890  0.42069956    -0.17800
C404        C  0.80738332  0.39264130  0.43640746    -0.19900
C405        C  0.83741175  0.39994795  0.41870068     0.20700
C406        C  0.84079223  0.38923455  0.38492326    -0.02900
C407        C  0.81370676  0.37202456  0.36890743    -0.05900
C408        C  0.78361471  0.36481117  0.38695673     0.21000
C409        C  0.81679785  0.36194192  0.33490278     0.19200
C410        C  0.84715118  0.36852410  0.31746637    -0.17400
C411        C  0.87426972  0.38497538  0.33355858    -0.19600
C412        C  0.87125413  0.39562012  0.36716953     0.20600
C413        C  0.89808108  0.41269233  0.38328068    -0.32600
C414        C  0.89449282  0.42426205  0.41660436     0.01300
C415        C  0.86412366  0.41774723  0.43417811    -0.24000
C416        C  0.75694361  0.34743822  0.37095464    -0.28500
C417        C  0.75972040  0.33766883  0.33700141     0.07000
C418        C  0.78959494  0.34520580  0.31904413    -0.27200
H419        H  0.75784009  0.36961803  0.43490710     0.11700
H420        H  0.80452585  0.40045959  0.46243476     0.12900
H421        H  0.84999213  0.36076522  0.29142477     0.11900
H422        H  0.89753080  0.38959469  0.31963207     0.11200
H423        H  0.92149543  0.41761565  0.36966848     0.16600
H424        H  0.86148245  0.42611516  0.46008567     0.12500
H425        H  0.73372161  0.34203026  0.38471225     0.15300
H426        H  0.79180466  0.33752271  0.29289931     0.15100
C427        C  0.84881692  0.63817306  0.31657220    -0.17800
C428        C  0.87544777  0.62116015  0.33288783    -0.19900
C429        C  0.87137016  0.60916718  0.36594163     0.20700
C430        C  0.84026638  0.61455720  0.38289498    -0.02900
C431        C  0.81346736  0.63189217  0.36650663    -0.05900
C432        C  0.81772788  0.64355423  0.33309717     0.21000
C433        C  0.78237795  0.63735609  0.38346094     0.19200
C434        C  0.77837038  0.62551832  0.41660513    -0.17400
C435        C  0.80491956  0.60822402  0.43282236    -0.19600
C436        C  0.83587372  0.60248304  0.41612751     0.20600
C437        C  0.86247040  0.58478272  0.43199508    -0.32600
C438        C  0.89350941  0.57932744  0.41517395     0.01300
C439        C  0.89782392  0.59176192  0.38225478    -0.24000
C440        C  0.79078043  0.66025009  0.31675913    -0.28500
C441        C  0.75981812  0.66576895  0.33353044     0.07000
C442        C  0.75581022  0.65440688  0.36689468    -0.27200
H443        H  0.85251131  0.64705365  0.29097778     0.11700
H444        H  0.89920271  0.61723363  0.31958420     0.12900
H445        H  0.75465034  0.62953175  0.42994534     0.11900
H446        H  0.80119967  0.59923010  0.45838144     0.11200
H447        H  0.85915993  0.57560153  0.45756875     0.16600
H448        H  0.92166266  0.58750617  0.36915621     0.12500
H449        H  0.79388645  0.66919084  0.29108307     0.15300
H450        H  0.73175507  0.65834697  0.37970260     0.15100
C451        C  0.66781268  0.14134471  0.59127223    -0.17800
C452        C  0.68472260  0.16869498  0.60672175    -0.19900
C453        C  0.66677257  0.19828175  0.61605655     0.20700
C454        C  0.63144180  0.20032363  0.60983240    -0.02900
C455        C  0.61448021  0.17290969  0.59403503    -0.05900
C456        C  0.63272256  0.14322154  0.58478485     0.21000
C457        C  0.57926108  0.17528578  0.58744280     0.19200
C458        C  0.56125305  0.20467911  0.59704432    -0.17400
C459        C  0.57796273  0.23170101  0.61297731    -0.19600
C460        C  0.61301109  0.22980677  0.61931483     0.20600
C461        C  0.62992423  0.25696373  0.63489535    -0.32600
C462        C  0.66503528  0.25515170  0.64114176     0.01300
C463        C  0.68342172  0.22585839  0.63154399    -0.24000
C464        C  0.61550060  0.11601307  0.56922027    -0.28500
C465        C  0.58047933  0.11851303  0.56230583     0.07000
C466        C  0.56260655  0.14825115  0.57134364    -0.27200
H467        H  0.68219556  0.11875713  0.58431826     0.11700
H468        H  0.71183416  0.16669564  0.61139674     0.12900
H469        H  0.53427344  0.20683571  0.59207837     0.11900
H470        H  0.56350561  0.25416655  0.62017550     0.11200
H471        H  0.61584774  0.27978085  0.64184360     0.16600
H472        H  0.71052708  0.22442286  0.63655359     0.12500
H473        H  0.62935343  0.09312573  0.56208494     0.15300
H474        H  0.53552809  0.15010249  0.56633524     0.15100
C475        C  0.34310439  0.13766011  0.61352332    -0.17800
C476        C  0.32807691  0.16491704  0.63095170    -0.19900
C477        C  0.34680790  0.19468478  0.63799274     0.20700
C478        C  0.38126998  0.19664356  0.62806737    -0.02900
C479        C  0.39627296  0.16936880  0.61015402    -0.05900
C480        C  0.37704860  0.13980224  0.60267182     0.21000
C481        C  0.43034203  0.17199855  0.59921319     0.19200
C482        C  0.44938082  0.20126218  0.60708243    -0.17400
C483        C  0.43466390  0.22812561  0.62508992    -0.19600
C484        C  0.40056399  0.22621996  0.63530636     0.20600
C485        C  0.38519276  0.25380832  0.65177916    -0.32600
C486        C  0.35061211  0.25261601  0.66054295     0.01300
C487        C  0.33156294  0.22288658  0.65396545    -0.24000
C488        C  0.39205089  0.11313027  0.58419321    -0.28500
C489        C  0.42575703  0.11606319  0.57260759     0.07000
C490        C  0.44472519  0.14550165  0.58029370    -0.27200
H491        H  0.32802546  0.11509366  0.60811664     0.11700
H492        H  0.30168061  0.16287072  0.63858535     0.12900
H493        H  0.47553518  0.20354407  0.59894527     0.11900
H494        H  0.44979162  0.25065506  0.63052192     0.11200
H495        H  0.39975218  0.27689760  0.65654609     0.16600
H496        H  0.30487812  0.22199415  0.66086563     0.12500
H497        H  0.37737378  0.09040067  0.57829206     0.15300
H498        H  0.47088871  0.14759042  0.57186057     0.15100
C499        C  0.33993416  0.14225511  0.37660227    -0.17800
C500        C  0.32562547  0.17070313  0.36038640    -0.19900
C501        C  0.34513997  0.20026560  0.35471421     0.20700
C502        C  0.37940364  0.20116177  0.36542174    -0.02900
C503        C  0.39366711  0.17270869  0.38206124    -0.05900
C504        C  0.37391037  0.14301851  0.38763525     0.21000
C505        C  0.42773008  0.17407600  0.39320485     0.19200
C506        C  0.44740520  0.20339417  0.38727904    -0.17400
C507        C  0.43339044  0.23142582  0.37052267    -0.19600
C508        C  0.39946575  0.23057085  0.35963532     0.20600
C509        C  0.38527202  0.25874298  0.34318976    -0.32600
C510        C  0.35119906  0.25817391  0.33267991     0.01300
C511        C  0.33112620  0.22897834  0.33857052    -0.24000
C512        C  0.38849904  0.11484751  0.40436050    -0.28500
C513        C  0.42224994  0.11657813  0.41614054     0.07000
C514        C  0.44163167  0.14618204  0.41025219    -0.27200
H515        H  0.32437167  0.11973438  0.38068129     0.11700
H516        H  0.29930569  0.16957682  0.35226063     0.12900
H517        H  0.47364413  0.20465412  0.39565146     0.11900
H518        H  0.44904200  0.25384420  0.36620992     0.11200
H519        H  0.40058180  0.28146130  0.33902702     0.16600
H520        H  0.30482465  0.22856388  0.33026248     0.12500
H521        H  0.37349502  0.09200131  0.40882993     0.15300
H522        H  0.46785933  0.14743265  0.41874671     0.15100
C523        C  0.62153323  0.23271929  0.41826112    -0.17800
C524        C  0.60319432  0.20636826  0.43366559    -0.19900
C525        C  0.59948982  0.17461757  0.41758654     0.20700
C526        C  0.61417832  0.16935121  0.38558453    -0.02900
C527        C  0.63220992  0.19609250  0.36981476    -0.05900
C528        C  0.63612171  0.22783106  0.38638963     0.21000
C529        C  0.64622668  0.19110398  0.33745310     0.19200
C530        C  0.64247934  0.15934692  0.32137718    -0.17400
C531        C  0.62507947  0.13263305  0.33727365    -0.19600
C532        C  0.61083911  0.13739960  0.36932563     0.20600
C533        C  0.59322264  0.11083080  0.38535860    -0.32600
C534        C  0.57827890  0.11603689  0.41711164     0.01300
C535        C  0.58141263  0.14803197  0.43299826    -0.24000
C536        C  0.65433048  0.25418768  0.37066704    -0.28500
C537        C  0.66781058  0.24946973  0.33829011     0.07000
C538        C  0.66363080  0.21801788  0.32173214    -0.27200
H539        H  0.62418440  0.25698226  0.43121377     0.11700
H540        H  0.59203071  0.21076960  0.45823386     0.12900
H541        H  0.65310692  0.15513622  0.29654919     0.11900
H542        H  0.62262981  0.10828323  0.32443420     0.11200
H543        H  0.59070088  0.08626689  0.37289146     0.16600
H544        H  0.57019203  0.15210826  0.45761749     0.12500
H545        H  0.65741543  0.27865374  0.38320309     0.15300
H546        H  0.67419261  0.21453320  0.29674229     0.15100
C547        C  0.34255369  0.86128026  0.61039233    -0.17800
C548        C  0.32698766  0.83412198  0.62746184    -0.19900
C549        C  0.34539796  0.80426237  0.63492193     0.20700
C550        C  0.37986976  0.80176289  0.62512934    -0.02900
C551        C  0.39538315  0.82888979  0.60744935    -0.05900
C552        C  0.37668766  0.85888479  0.60022568     0.21000
C553        C  0.42956622  0.82591950  0.59691870     0.19200
C554        C  0.44807877  0.79621620  0.60458554    -0.17400
C555        C  0.43290507  0.76958521  0.62261049    -0.19600
C556        C  0.39882417  0.77207214  0.63281896     0.20600
C557        C  0.38327390  0.74520344  0.65025387    -0.32600
C558        C  0.34886111  0.74728426  0.65963474     0.01300
C559        C  0.32997747  0.77679088  0.65184096    -0.24000
C560        C  0.39247231  0.88587882  0.58292438    -0.28500
C561        C  0.42639387  0.88283055  0.57208472     0.07000
C562        C  0.44467821  0.85271316  0.57894549    -0.27200
H563        H  0.32783644  0.88410406  0.60499138     0.11700
H564        H  0.30055116  0.83649197  0.63487185     0.12900
H565        H  0.47429183  0.79358440  0.59663258     0.11900
H566        H  0.44774246  0.74691180  0.62831746     0.11200
H567        H  0.39771529  0.72221772  0.65585909     0.16600
H568        H  0.30344705  0.77838081  0.65919216     0.12500
H569        H  0.37824474  0.90900421  0.57737672     0.15300
H570        H  0.47090887  0.85039861  0.57078136     0.15100
C571        C  0.68388457  0.83900092  0.61721401    -0.17800
C572        C  0.66640837  0.86584335  0.60153677    -0.19900
C573        C  0.63166822  0.86265791  0.59388559     0.20700
C574        C  0.61423444  0.83228428  0.60245371    -0.02900
C575        C  0.63177218  0.80536088  0.61857852    -0.05900
C576        C  0.66685294  0.80863744  0.62569242     0.21000
C577        C  0.61425805  0.77510754  0.62736362     0.19200
C578        C  0.57943866  0.77203898  0.62003032    -0.17400
C579        C  0.56215733  0.79858575  0.60371325    -0.19600
C580        C  0.57934984  0.82868101  0.59467252     0.20600
C581        C  0.56234300  0.85511316  0.57775513    -0.32600
C582        C  0.57958190  0.88535080  0.56904747     0.01300
C583        C  0.61412228  0.88915914  0.57754500    -0.24000
C584        C  0.68427480  0.78148964  0.64111458    -0.28500
C585        C  0.66693869  0.75139115  0.64998456     0.07000
C586        C  0.63192482  0.74840757  0.64317238    -0.27200
H587        H  0.71075957  0.84196422  0.62265221     0.11700
H588        H  0.68013805  0.88900917  0.59515594     0.12900
H589        H  0.56562733  0.74899696  0.62668033     0.11900
H590        H  0.53538985  0.79550945  0.59800104     0.11200
H591        H  0.53559721  0.85230125  0.57159236     0.16600
H592        H  0.62750391  0.91244075  0.57075747     0.12500
H593        H  0.71120380  0.78387847  0.64666244     0.15300
H594        H  0.61858429  0.72504497  0.64977725     0.15100
C595        C  0.64688722  0.84482740  0.32166567    -0.17800
C596        C  0.62899968  0.87096521  0.33793609    -0.19900
C597        C  0.61175271  0.86440866  0.36819167     0.20700
C598        C  0.61289618  0.83134289  0.38248380    -0.02900
C599        C  0.63114641  0.80504899  0.36622084    -0.05900
C600        C  0.64791409  0.81176609  0.33546624     0.21000
C601        C  0.63263492  0.77207151  0.38074309     0.19200
C602        C  0.61591294  0.76570056  0.41132405    -0.17400
C603        C  0.59762550  0.79172284  0.42732536    -0.19600
C604        C  0.59589154  0.82454592  0.41305719     0.20600
C605        C  0.57761098  0.85071519  0.42894303    -0.32600
C606        C  0.57632709  0.88374227  0.41485949     0.01300
C607        C  0.59351549  0.89037557  0.38446600    -0.24000
C608        C  0.66540554  0.78529230  0.31909776    -0.28500
C609        C  0.66692585  0.75252222  0.33349513     0.07000
C610        C  0.65080692  0.74607401  0.36439055    -0.27200
H611        H  0.65988893  0.85046007  0.29825442     0.11700
H612        H  0.62855173  0.89629281  0.32678516     0.12900
H613        H  0.61689369  0.74055136  0.42281908     0.11900
H614        H  0.58485071  0.78618164  0.45088574     0.11200
H615        H  0.56478753  0.84543481  0.45255130     0.16600
H616        H  0.59267839  0.91574258  0.37338552     0.12500
H617        H  0.67817722  0.79015188  0.29537115     0.15300
H618        H  0.65209937  0.72067399  0.37537169     0.15100
C619        C  0.33983774  0.84233611  0.33382476    -0.17800
C620        C  0.35505660  0.86898856  0.35195871    -0.19900
C621        C  0.38241411  0.86238511  0.37382044     0.20700
C622        C  0.39467931  0.82862021  0.37732126    -0.02900
C623        C  0.37956861  0.80179200  0.35878911    -0.05900
C624        C  0.35186806  0.80865671  0.33706463     0.21000
C625        C  0.39207088  0.76807288  0.36216654     0.19200
C626        C  0.41921359  0.76139219  0.38418757    -0.17400
C627        C  0.43401872  0.78793241  0.40269535    -0.19600
C628        C  0.42200166  0.82160787  0.39938338     0.20600
C629        C  0.43688602  0.84834907  0.41774735    -0.32600
C630        C  0.42496894  0.88219865  0.41436140     0.01300
C631        C  0.39767615  0.88893226  0.39225188    -0.24000
C632        C  0.33660377  0.78165381  0.31923435    -0.28500
C633        C  0.34922596  0.74820355  0.32248504     0.07000
C634        C  0.37699976  0.74156791  0.34371447    -0.27200
H635        H  0.31865260  0.84807329  0.31725509     0.11700
H636        H  0.34533129  0.89477847  0.34897768     0.12900
H637        H  0.42894466  0.73560200  0.38716289     0.11900
H638        H  0.45492946  0.78211897  0.41957944     0.11200
H639        H  0.45797317  0.84274277  0.43450459     0.16600
H640        H  0.38817897  0.91483412  0.38940427     0.12500
H641        H  0.31496860  0.78650847  0.30293110     0.15300
H642        H  0.38631745  0.71555595  0.34636140     0.15100
C643        C  0.69176364  0.35247474  0.15494367    -0.17800
C644        C  0.67644289  0.36872013  0.12733714    -0.19900
C645        C  0.64460360  0.38474324  0.13072339     0.20700
C646        C  0.62807962  0.38433067  0.16230171    -0.02900
C647        C  0.64334403  0.36767904  0.19002659    -0.05900
C648        C  0.67543048  0.35178765  0.18637100     0.21000
C649        C  0.62643274  0.36691089  0.22139333     0.19200
C650        C  0.59473309  0.38301903  0.22491601    -0.17400
C651        C  0.57977185  0.39973716  0.19755405    -0.19600
C652        C  0.59621282  0.40047814  0.16621538     0.20600
C653        C  0.58121031  0.41708994  0.13875732    -0.32600
C654        C  0.59729399  0.41763551  0.10711392     0.01300
C655        C  0.62897408  0.40119877  0.10320067    -0.24000
C656        C  0.69051112  0.33554287  0.21422273    -0.28500
C657        C  0.67349104  0.33450066  0.24528606     0.07000
C658        C  0.64151283  0.35007585  0.24871255    -0.27200
H659        H  0.71635641  0.34035065  0.15168465     0.11700
H660        H  0.68953599  0.36879314  0.10333306     0.12900
H661        H  0.58150545  0.38269745  0.24885135     0.11900
H662        H  0.55526149  0.41201640  0.20087540     0.11200
H663        H  0.55667832  0.42938565  0.14201076     0.16600
H664        H  0.64165088  0.40166365  0.07896427     0.12500
H665        H  0.71525858  0.32349238  0.21179084     0.15300
H666        H  0.62868500  0.34950037  0.27289020     0.15100
C667        C  0.69925943  0.63293506  0.15555014    -0.17800
C668        C  0.68418083  0.61491950  0.12888383    -0.19900
C669        C  0.64985741  0.60492695  0.13057101     0.20700
C670        C  0.63061283  0.61317225  0.15946884    -0.02900
C671        C  0.64565708  0.63173672  0.18610155    -0.05900
C672        C  0.68020894  0.64154104  0.18425531     0.21000
C673        C  0.62610533  0.64025875  0.21469384     0.19200
C674        C  0.59198387  0.62994206  0.21666062    -0.17400
C675        C  0.57721529  0.61128363  0.19049062    -0.19600
C676        C  0.59627483  0.60282716  0.16184956     0.20600
C677        C  0.58144826  0.58425860  0.13555975    -0.32600
C678        C  0.60013781  0.57634162  0.10646951     0.01300
C679        C  0.63435510  0.58685931  0.10400016    -0.24000
C680        C  0.69503216  0.65946589  0.21128676    -0.28500
C681        C  0.67547477  0.66811452  0.23973999     0.07000
C682        C  0.64104369  0.65858637  0.24108208    -0.27200
H683        H  0.72581543  0.64019024  0.15369261     0.11700
H684        H  0.69940587  0.60870332  0.10698176     0.12900
H685        H  0.57673262  0.63618996  0.23853658     0.11900
H686        H  0.55082317  0.60351291  0.19262507     0.11200
H687        H  0.55500186  0.57651464  0.13745140     0.16600
H688        H  0.64893952  0.58060949  0.08166276     0.12500
H689        H  0.72165747  0.66669808  0.21027342     0.15300
H690        H  0.62610250  0.66458771  0.26326368     0.15100
C691        C  0.40266223  0.57424732  0.22369005    -0.17800
C692        C  0.42117090  0.55860778  0.19782304    -0.19900
C693        C  0.42326951  0.57397182  0.16590995     0.20700
C694        C  0.40625481  0.60520935  0.15987908    -0.02900
C695        C  0.38789353  0.62116250  0.18604075    -0.05900
C696        C  0.38613787  0.60561413  0.21812231     0.21000
C697        C  0.37156479  0.65283013  0.18015676     0.19200
C698        C  0.37296353  0.66778256  0.14807368    -0.17400
C699        C  0.39080176  0.65175396  0.12204769    -0.19600
C700        C  0.40775287  0.62065600  0.12777210     0.20600
C701        C  0.42630133  0.60486052  0.10196865    -0.32600
C702        C  0.44380523  0.57398970  0.10785659     0.01300
C703        C  0.44210992  0.55869316  0.13994718    -0.24000
C704        C  0.36821979  0.62195897  0.24409413    -0.28500
C705        C  0.35283387  0.65390621  0.23845282     0.07000
C706        C  0.35440347  0.66914527  0.20653844    -0.27200
H707        H  0.40152479  0.56195871  0.24813956     0.11700
H708        H  0.43393315  0.53452701  0.20280685     0.12900
H709        H  0.36037092  0.69196360  0.14314450     0.11900
H710        H  0.39160000  0.66385245  0.09749557     0.11200
H711        H  0.42740190  0.61685155  0.07735876     0.16600
H712        H  0.45510793  0.53466212  0.14463440     0.12500
H713        H  0.36685080  0.61033860  0.26887185     0.15300
H714        H  0.34218099  0.69368887  0.20235451     0.15100
C715        C  0.34571321  0.36605017  0.15537805    -0.17800
C716        C  0.36301097  0.37955800  0.12765716    -0.19900
C717        C  0.39606458  0.39263884  0.13136264     0.20700
C718        C  0.41197069  0.39188191  0.16327641    -0.02900
C719        C  0.39472837  0.37782561  0.19112249    -0.05900
C720        C  0.36133307  0.36511315  0.18713585     0.21000
C721        C  0.41085911  0.37654606  0.22292722     0.19200
C722        C  0.44384151  0.38978695  0.22668615    -0.17400
C723        C  0.46072838  0.40424458  0.19916722    -0.19600
C724        C  0.44502047  0.40533303  0.16742378     0.20600
C725        C  0.46168559  0.41993450  0.13983101    -0.32600
C726        C  0.44592441  0.42107449  0.10801359     0.01300
C727        C  0.41330321  0.40690337  0.10383677    -0.24000
C728        C  0.34417997  0.35159193  0.21496363    -0.28500
C729        C  0.36027936  0.34987751  0.24641774     0.07000
C730        C  0.39363873  0.36208263  0.25034954    -0.27200
H731        H  0.32012630  0.35627310  0.15197159     0.11700
H732        H  0.35043567  0.38000189  0.10335993     0.12900
H733        H  0.45650645  0.38911252  0.25093561     0.11900
H734        H  0.48609974  0.41453825  0.20269226     0.11200
H735        H  0.48698186  0.43051847  0.14317504     0.16600
H736        H  0.40093965  0.40786882  0.07942559     0.12500
H737        H  0.31850364  0.34178853  0.21214179     0.15300
H738        H  0.40588839  0.36063122  0.27480341     0.15100
C739        C  0.68080287  0.61436574  0.85266315    -0.17800
C740        C  0.69545834  0.63185824  0.82553690    -0.19900
C741        C  0.67628245  0.63890081  0.79650233     0.20700
C742        C  0.64193430  0.62840709  0.79482353    -0.02900
C743        C  0.62723992  0.61058908  0.82206244    -0.05900
C744        C  0.64673365  0.60362069  0.85118684     0.21000
C745        C  0.59304552  0.59973706  0.82010654     0.19200
C746        C  0.57377529  0.60693729  0.79119094    -0.17400
C747        C  0.58826592  0.62478025  0.76429351    -0.19600
C748        C  0.62228989  0.63553768  0.76584864     0.20600
C749        C  0.63712335  0.65293885  0.73876775    -0.32600
C750        C  0.67146843  0.66280171  0.74002717     0.01300
C751        C  0.69089317  0.65591095  0.76896952    -0.24000
C752        C  0.63175628  0.58611246  0.87828701    -0.28500
C753        C  0.59773190  0.57511080  0.87632542     0.07000
C754        C  0.57863149  0.58193984  0.84712111    -0.27200
H755        H  0.69614080  0.60919192  0.87478629     0.11700
H756        H  0.72183121  0.63980780  0.82723176     0.12900
H757        H  0.54746856  0.59877876  0.78938997     0.11900
H758        H  0.57290395  0.63002738  0.74219936     0.11200
H759        H  0.62223376  0.65808092  0.71630541     0.16600
H760        H  0.71733108  0.66383283  0.76996344     0.12500
H761        H  0.64661996  0.58070494  0.90069394     0.15300
H762        H  0.55226624  0.57382634  0.84561913     0.15100
C763        C  0.58402055  0.37611828  0.76059798    -0.17800
C764        C  0.56976119  0.39193790  0.78880993    -0.19900
C765        C  0.58980219  0.39878374  0.81730360     0.20700
C766        C  0.62451554  0.38961348  0.81750806    -0.02900
C767        C  0.63905534  0.37422168  0.78879315    -0.05900
C768        C  0.61863669  0.36732184  0.76028764     0.21000
C769        C  0.67400355  0.36586691  0.78857233     0.19200
C770        C  0.69393362  0.37245694  0.81719964    -0.17400
C771        C  0.67937093  0.38719483  0.84589959    -0.19600
C772        C  0.64471386  0.39594617  0.84631986     0.20600
C773        C  0.62993335  0.41114905  0.87487537    -0.32600
C774        C  0.59550059  0.42091356  0.87449263     0.01300
C775        C  0.57569862  0.41471104  0.84556787    -0.24000
C776        C  0.63323012  0.35191944  0.73191947    -0.28500
C777        C  0.66807342  0.34387102  0.73145072     0.07000
C778        C  0.68836079  0.35104398  0.75974893    -0.27200
H779        H  0.56802683  0.37098029  0.73892911     0.11700
H780        H  0.54301832  0.39875905  0.78837662     0.12900
H781        H  0.72079265  0.36612369  0.81742554     0.11900
H782        H  0.69527771  0.39194387  0.86770832     0.11200
H783        H  0.64533621  0.41617053  0.89699963     0.16600
H784        H  0.54904760  0.42199278  0.84520042     0.12500
H785        H  0.61765396  0.34668881  0.70994836     0.15300
H786        H  0.71520656  0.34457266  0.75944642     0.15100
C787        C  0.42233526  0.44229261  0.78597775    -0.17800
C788        C  0.40489744  0.42746494  0.75895158    -0.19900
C789        C  0.38619827  0.39722417  0.76353374     0.20700
C790        C  0.38437479  0.38220509  0.79586685    -0.02900
C791        C  0.40177497  0.39732728  0.82319675    -0.05900
C792        C  0.42121999  0.42721777  0.81806247     0.21000
C793        C  0.40013112  0.38225191  0.85549231     0.19200
C794        C  0.38060375  0.35254044  0.86025344    -0.17400
C795        C  0.36357756  0.33738146  0.83311138    -0.19600
C796        C  0.36568458  0.35174472  0.80077490     0.20600
C797        C  0.34995368  0.33590683  0.77315293    -0.32600
C798        C  0.35221284  0.35047605  0.74090647     0.01300
C799        C  0.36980142  0.38138928  0.73628285    -0.24000
C800        C  0.43947513  0.44137898  0.84499161    -0.28500
C801        C  0.43839117  0.42635301  0.87724618     0.07000
C802        C  0.41831625  0.39693438  0.88233902    -0.27200
H803        H  0.43697147  0.46539941  0.78171165     0.11700
H804        H  0.40642291  0.43939997  0.73435508     0.12900
H805        H  0.37885556  0.34075727  0.88490336     0.11900
H806        H  0.34905963  0.31419111  0.83734293     0.11200
H807        H  0.33604465  0.31218180  0.77659311     0.16600
H808        H  0.37144263  0.39251626  0.71130348     0.12500
H809        H  0.45448184  0.46427214  0.84077767     0.15300
H810        H  0.41724684  0.38514235  0.90704027     0.15100
C811        C  0.38279594  0.67348631  0.83298851    -0.17800
C812        C  0.40046878  0.65762897  0.85930881    -0.19900
C813        C  0.41423853  0.62476805  0.85506622     0.20700
C814        C  0.41058342  0.60787068  0.82383924    -0.02900
C815        C  0.39253160  0.62373043  0.79739000    -0.05900
C816        C  0.37850836  0.65667224  0.80205854     0.21000
C817        C  0.38840449  0.60657040  0.76634685     0.19200
C818        C  0.40296558  0.57410692  0.76178639    -0.17400
C819        C  0.42106190  0.55848211  0.78794502    -0.19600
C820        C  0.42476902  0.57504606  0.81909064     0.20600
C821        C  0.44218851  0.55924026  0.84564893    -0.32600
C822        C  0.44529546  0.57559875  0.87708818     0.01300
C823        C  0.43140438  0.60843344  0.88155381    -0.24000
C824        C  0.36041030  0.67215644  0.77571786    -0.28500
C825        C  0.35571981  0.65486288  0.74509098     0.07000
C826        C  0.36975197  0.62217940  0.74045978    -0.27200
H827        H  0.37228398  0.69882420  0.83689799     0.11700
H828        H  0.40324741  0.67101670  0.88304607     0.12900
H829        H  0.40023696  0.56074021  0.73803054     0.11900
H830        H  0.43194863  0.53332623  0.78390008     0.11200
H831        H  0.45279790  0.53387722  0.84200211     0.16600
H832        H  0.43412730  0.62134610  0.90556960     0.12500
H833        H  0.34963597  0.69749828  0.77904230     0.15300
H834        H  0.36648372  0.60920622  0.71653222     0.15100
loop_ 
_geom_bond_atom_site_label_1 
_geom_bond_atom_site_label_2 
_geom_bond_distance 
_geom_bond_site_symmetry_2 
_ccdc_geom_bond_type 
O1          Zr13   2.451       .  S
O1            C3   1.290       .  A
O2          Zr39   2.416       .  S
O2            C3   1.286       .  A
C3          C801   1.485       .  S
O4          Zr16   2.445   1_554  S
O4            C6   1.289       .  A
O5          Zr40   2.422       .  S
O5            C6   1.286       .  A
C6          C702   1.482       .  S
O7          Zr16   2.452       .  S
O7            C9   1.290       .  A
O8          Zr39   2.399       .  S
O8            C9   1.282       .  A
C9          C822   1.476       .  S
O10         Zr13   2.443   1_554  S
O10          C12   1.289       .  A
O11         Zr40   2.409       .  S
O11          C12   1.285       .  A
C12         C726   1.475       .  S
Zr13         O14   2.436       .  S
Zr13         O15   2.435       .  S
Zr13         O19   2.372       .  S
Zr13         O20   2.373   1_556  S
Zr13         O43   2.376   1_556  S
Zr13         O45   2.372       .  S
O14          H57   0.990   1_556  S
O15          H56   0.990       .  S
O15          H60   0.990       .  S
Zr16         O17   2.437       .  S
Zr16         O18   2.434       .  S
Zr16         O20   2.373   1_556  S
Zr16         O19   2.372       .  S
Zr16         O44   2.367       .  S
Zr16         O46   2.377   1_556  S
O17          H58   0.990   1_556  S
O17          H61   0.990       .  S
O18          H51   0.990   1_556  S
O19         Zr39   2.370       .  S
O20         Zr40   2.378       .  S
O20          H47   0.966       .  S
O21         Zr33   2.456   1_554  S
O21          C23   1.291       .  A
O22         Zr40   2.413       .  S
O22          C23   1.286       .  A
C23         C654   1.482       .  S
O24         Zr36   2.446       .  S
O24          C26   1.289       .  A
O25         Zr39   2.410       .  S
O25          C26   1.285       .  A
C26         C753   1.475       .  S
O27         Zr36   2.446   1_554  S
O27          C29   1.288       .  A
O28         Zr40   2.421       .  S
O28          C29   1.287       .  A
C29         C678   1.478       .  S
O30         Zr33   2.465       .  S
O30          C32   1.292       .  A
O31         Zr39   2.398       .  S
O31          C32   1.282       .  A
C32         C774   1.477       .  S
Zr33         O34   2.434       .  S
Zr33         O35   2.434       .  S
Zr33         O41   2.375   1_556  S
Zr33         O42   2.374       .  S
Zr33         O45   2.374       .  S
Zr33         O43   2.378   1_556  S
O34          H54   0.990       .  S
O34          H59   0.990       .  S
O35          H55   0.990       .  S
Zr36         O37   2.435       .  S
Zr36         O38   2.434       .  S
Zr36         O42   2.374       .  S
Zr36         O41   2.367   1_556  S
Zr36         O46   2.380   1_556  S
Zr36         O44   2.373       .  S
O37          H53   0.990   1_556  S
O38          H52   0.990   1_556  S
O38          H62   0.990       .  S
Zr39         O42   2.378       .  S
Zr39         O44   2.375       .  S
Zr39         O45   2.374       .  S
Zr40         O41   2.377       .  S
Zr40         O43   2.378       .  S
Zr40         O46   2.375       .  S
O41          H49   0.966       .  S
O44          H48   0.965       .  S
O45          H50   0.965       .  S
O63         Zr75   2.446       .  S
O63          C65   1.290       .  A
O64        Zr101   2.420       .  S
O64          C65   1.287       .  A
C65         C630   1.486       .  S
O66         Zr78   2.432   1_545  S
O66          C68   1.287       .  A
O67        Zr102   2.415       .  S
O67          C68   1.286       .  A
C68         C534   1.474       .  S
O69         Zr78   2.431       .  S
O69          C71   1.287       .  A
O70        Zr101   2.415       .  S
O70          C71   1.286       .  A
C71         C606   1.477       .  S
O72         Zr75   2.448   1_545  S
O72          C74   1.288       .  A
O73        Zr102   2.404       .  S
O73          C74   1.284       .  A
C74         C513   1.473       .  S
Zr75         O76   2.437       .  S
Zr75         O77   2.434       .  S
Zr75         O81   2.373       .  S
Zr75         O82   2.372   1_565  S
Zr75        O105   2.372   1_565  S
Zr75        O107   2.374       .  S
O76         H119   0.990   1_565  S
O77         H118   0.990       .  S
O77         H122   0.990       .  S
Zr78         O79   2.436       .  S
Zr78         O80   2.435       .  S
Zr78         O82   2.370   1_565  S
Zr78         O81   2.366       .  S
Zr78        O106   2.368       .  S
Zr78        O108   2.371   1_565  S
O79         H120   0.990   1_565  S
O79         H123   0.990   1_565  S
O80         H113   0.990       .  S
O81        Zr101   2.374       .  S
O82        Zr102   2.378       .  S
O82         H109   0.965       .  S
O83         Zr95   2.440   1_545  S
O83          C85   1.288       .  A
O84        Zr102   2.418       .  S
O84          C85   1.286       .  A
C85         C489   1.474       .  S
O86         Zr98   2.435   1_565  S
O86          C88   1.287       .  A
O87        Zr101   2.420       .  S
O87          C88   1.286       .  A
C88         C582   1.473       .  S
O89         Zr98   2.448       .  S
O89          C91   1.288       .  A
O90        Zr102   2.405       .  S
O90          C91   1.283       .  A
C91         C465   1.472       .  S
O92         Zr95   2.444       .  S
O92          C94   1.288       .  A
O93        Zr101   2.411       .  S
O93          C94   1.285       .  A
C94         C561   1.473       .  S
Zr95         O96   2.435       .  S
Zr95         O97   2.433       .  S
Zr95        O103   2.376   1_565  S
Zr95        O104   2.373       .  S
Zr95        O107   2.371       .  S
Zr95        O105   2.371   1_565  S
O96         H116   0.990       .  S
O96         H121   0.990       .  S
O97         H117   0.990   1_565  S
Zr98         O99   2.433       .  S
Zr98        O100   2.436   1_545  S
Zr98        O104   2.377   1_545  S
Zr98        O103   2.367       .  S
Zr98        O108   2.366       .  S
Zr98        O106   2.371   1_545  S
O99         H115   0.990       .  S
O100        H114   0.990   1_565  S
O100        H124   0.990   1_565  S
Zr101       O104   2.375       .  S
Zr101       O106   2.378       .  S
Zr101       O107   2.382       .  S
Zr102       O103   2.375       .  S
Zr102       O105   2.374       .  S
Zr102       O108   2.373       .  S
O103        H111   0.965       .  S
O106        H110   0.965       .  S
O107        H112   0.966       .  S
O125       Zr137   2.442   1_655  S
O125        C127   1.289       .  A
O126       Zr163   2.407       .  S
O126        C127   1.284       .  A
C127        C438   1.474       .  S
O128       Zr140   2.437       .  S
O128        C130   1.286       .  A
O129       Zr164   2.415       .  S
O129        C130   1.286       .  A
C130        C345   1.474       .  S
O131       Zr140   2.437   1_655  S
O131        C133   1.287       .  A
O132       Zr163   2.415       .  S
O132        C133   1.285       .  A
C133        C414   1.474       .  S
O134       Zr137   2.444       .  S
O134        C136   1.288       .  A
O135       Zr164   2.410       .  S
O135        C136   1.285       .  A
C136        C321   1.478       .  S
Zr137       O138   2.435       .  S
Zr137       O139   2.435       .  S
Zr137       O143   2.372   1_455  S
Zr137       O144   2.368       .  S
Zr137       O167   2.377       .  S
Zr137       O169   2.371   1_455  S
O138        H181   0.990   1_455  S
O139        H180   0.990       .  S
O139        H184   0.990       .  S
Zr140       O141   2.437       .  S
Zr140       O142   2.434       .  S
Zr140       O144   2.372       .  S
Zr140       O143   2.374   1_455  S
Zr140       O168   2.368   1_455  S
Zr140       O170   2.376       .  S
O141        H182   0.990       .  S
O141        H185   0.990       .  S
O142        H175   0.990       .  S
O143       Zr163   2.379       .  S
O144       Zr164   2.381       .  S
O144        H171   0.967       .  S
O145       Zr157   2.444       .  S
O145        C147   1.288       .  A
O146       Zr164   2.428       .  S
O146        C147   1.288       .  A
C147        C297   1.484       .  S
O148       Zr160   2.449   1_655  S
O148        C150   1.289       .  A
O149       Zr163   2.398       .  S
O149        C150   1.282       .  A
C150        C390   1.470       .  S
O151       Zr160   2.458       .  S
O151        C153   1.291       .  A
O152       Zr164   2.399       .  S
O152        C153   1.283       .  A
C153        C270   1.480       .  S
O154       Zr157   2.449   1_655  S
O154        C156   1.290       .  A
O155       Zr163   2.420       .  S
O155        C156   1.286       .  A
C156        C366   1.481       .  S
Zr157       O158   2.436       .  S
Zr157       O159   2.433       .  S
Zr157       O165   2.377       .  S
Zr157       O166   2.377   1_455  S
Zr157       O169   2.369   1_455  S
Zr157       O167   2.374       .  S
O158        H178   0.990       .  S
O158        H183   0.990       .  S
O159        H179   0.990       .  S
Zr160       O161   2.434       .  S
Zr160       O162   2.436       .  S
Zr160       O166   2.375   1_455  S
Zr160       O165   2.372       .  S
Zr160       O170   2.375       .  S
Zr160       O168   2.372   1_455  S
O161        H177   0.991   1_455  S
O162        H176   0.990       .  S
O162        H186   0.990       .  S
Zr163       O166   2.373       .  S
Zr163       O168   2.382       .  S
Zr163       O169   2.378       .  S
Zr164       O165   2.381       .  S
Zr164       O167   2.375       .  S
Zr164       O170   2.382       .  S
O165        H173   0.967       .  S
O168        H172   0.965       .  S
O169        H174   0.964       .  S
C187        C417   1.478       .  S
C187        C188   1.404       .  A
C187        C192   1.404       .  A
C188        C189   1.401       .  A
C188        H193   1.084       .  S
C189        C537   1.472       .  S
C189        C190   1.401       .  A
C190        C191   1.401       .  A
C190        H194   1.084       .  S
C191        C657   1.472       .  S
C191        C192   1.401       .  A
C192        H195   1.084       .  S
C196        C441   1.477       .  S
C196        C197   1.405       .  A
C196        C201   1.402       .  A
C197        C198   1.404       .  A
C197        H202   1.084       .  S
C198        C681   1.481       .  S
C198        C199   1.406       .  A
C199        C200   1.401       .  A
C199        H203   1.084       .  S
C200        C609   1.472       .  S
C200        C201   1.399       .  A
C201        H204   1.084       .  S
C205        C777   1.476       .  S
C205        C206   1.400       .  A
C205        C210   1.401       .  A
C206        C207   1.402       .  A
C206        H211   1.084       .  S
C207        C393   1.470       .  S
C207        C208   1.400       .  A
C208        C209   1.401       .  A
C208        H212   1.084       .  S
C209        C462   1.474       .  S
C209        C210   1.404       .  A
C210        H213   1.084       .  S
C214        C633   1.470       .  S
C214        C215   1.400       .  A
C214        C219   1.402       .  A
C215        C216   1.401       .  A
C215        H220   1.084       .  S
C216        C318   1.469       .  S
C216        C217   1.401       .  A
C217        C218   1.399       .  A
C217        H221   1.084       .  S
C218        C705   1.470       .  S
C218        C219   1.402       .  A
C219        H222   1.084       .  S
C223        C825   1.471       .  S
C223        C224   1.402       .  A
C223        C228   1.399       .  A
C224        C225   1.403       .  A
C224        H229   1.084       .  S
C225        C294   1.475       .  S
C225        C226   1.404       .  A
C226        C227   1.403       .  A
C226        H230   1.084       .  S
C227        C558   1.476       .  S
C227        C228   1.401       .  A
C228        H231   1.084       .  S
C232        C798   1.473       .  S
C232        C233   1.401       .  A
C232        C237   1.402       .  A
C233        C234   1.402       .  A
C233        H238   1.084       .  S
C234        C273   1.473       .  S
C234        C235   1.403       .  A
C235        C236   1.404       .  A
C235        H239   1.084       .  S
C236        C486   1.477       .  S
C236        C237   1.404       .  A
C237        H240   1.084       .  S
C241        C750   1.475       .  S
C241        C242   1.402       .  A
C241        C246   1.400       .  A
C242        C243   1.404       .  A
C242        H247   1.084       .  S
C243        C369   1.479       .  S
C243        C244   1.404       .  A
C244        C245   1.406       .  A
C244        H248   1.084       .  S
C245        C585   1.477       .  S
C245        C246   1.401       .  A
C246        H249   1.084       .  S
C250        C510   1.473       .  S
C250        C251   1.402       .  A
C250        C255   1.401       .  A
C251        C252   1.397       .  A
C251        H256   1.084       .  S
C252        C729   1.467       .  S
C252        C253   1.400       .  A
C253        C254   1.402       .  A
C253        H257   1.084       .  S
C254        C342   1.474       .  S
C254        C255   1.403       .  A
C255        H258   1.084       .  S
C259        C260   1.398       .  A
C259        C264   1.403       .  A
C259        H275   1.083       .  S
C260        C261   1.403       .  A
C260        H276   1.084       .  S
C261        C271   1.402       .  A
C261        C262   1.412       .  A
C262        C268   1.410       .  A
C262        C263   1.411       .  A
C263        C265   1.413       .  A
C263        C264   1.412       .  A
C264        C272   1.401       .  A
C265        C274   1.403       .  A
C265        C266   1.403       .  A
C266        C267   1.399       .  A
C266        H277   1.084       .  S
C267        C268   1.404       .  A
C267        H278   1.084       .  S
C268        C269   1.401       .  A
C269        C270   1.410       .  A
C269        H279   1.084       .  S
C270        C271   1.406       .  A
C271        H280   1.084       .  S
C272        C273   1.402       .  A
C272        H281   1.084       .  S
C273        C274   1.404       .  A
C274        H282   1.084       .  S
C283        C284   1.398       .  A
C283        C288   1.403       .  A
C283        H299   1.084       .  S
C284        C285   1.403       .  A
C284        H300   1.084       .  S
C285        C295   1.401       .  A
C285        C286   1.412       .  A
C286        C292   1.412       .  A
C286        C287   1.412       .  A
C287        C289   1.411       .  A
C287        C288   1.411       .  A
C288        C296   1.402       .  A
C289        C298   1.405       .  A
C289        C290   1.405       .  A
C290        C291   1.400       .  A
C290        H301   1.084       .  S
C291        C292   1.403       .  A
C291        H302   1.084       .  S
C292        C293   1.404       .  A
C293        C294   1.405       .  A
C293        H303   1.084       .  S
C294        C295   1.404       .  A
C295        H304   1.085       .  S
C296        C297   1.407       .  A
C296        H305   1.084       .  S
C297        C298   1.409       .  A
C298        H306   1.084       .  S
C307        C308   1.400       .  A
C307        C312   1.404       .  A
C307        H323   1.084       .  S
C308        C309   1.403       .  A
C308        H324   1.084       .  S
C309        C319   1.403       .  A
C309        C310   1.413       .  A
C310        C316   1.412       .  A
C310        C311   1.409       .  A
C311        C313   1.411       .  A
C311        C312   1.412       .  A
C312        C320   1.403       .  A
C313        C322   1.397       .  A
C313        C314   1.402       .  A
C314        C315   1.396       .  A
C314        H325   1.084       .  S
C315        C316   1.402       .  A
C315        H326   1.084       .  S
C316        C317   1.397       .  A
C317        C318   1.401       .  A
C317        H327   1.085       .  S
C318        C319   1.404       .  A
C319        H328   1.084       .  S
C320        C321   1.408       .  A
C320        H329   1.084       .  S
C321        C322   1.406       .  A
C322        H330   1.084       .  S
C331        C332   1.400       .  A
C331        C336   1.404       .  A
C331        H347   1.083       .  S
C332        C333   1.404       .  A
C332        H348   1.084       .  S
C333        C343   1.401       .  A
C333        C334   1.411       .  A
C334        C340   1.412       .  A
C334        C335   1.409       .  A
C335        C337   1.410       .  A
C335        C336   1.413       .  A
C336        C344   1.405       .  A
C337        C346   1.395       .  A
C337        C338   1.402       .  A
C338        C339   1.395       .  A
C338        H349   1.084       .  S
C339        C340   1.402       .  A
C339        H350   1.084       .  S
C340        C341   1.398       .  A
C341        C342   1.404       .  A
C341        H351   1.085       .  S
C342        C343   1.405       .  A
C343        H352   1.084       .  S
C344        C345   1.407       .  A
C344        H353   1.084       .  S
C345        C346   1.404       .  A
C346        H354   1.085       .  S
C355        C356   1.398       .  A
C355        C360   1.403       .  A
C355        H371   1.084       .  S
C356        C357   1.403       .  A
C356        H372   1.083       .  S
C357        C367   1.401       .  A
C357        C358   1.411       .  A
C358        C364   1.412       .  A
C358        C359   1.412       .  A
C359        C361   1.413       .  A
C359        C360   1.411       .  A
C360        C368   1.400       .  A
C361        C370   1.406       .  A
C361        C362   1.404       .  A
C362        C363   1.401       .  A
C362        H373   1.083       .  S
C363        C364   1.404       .  A
C363        H374   1.083       .  S
C364        C365   1.406       .  A
C365        C366   1.408       .  A
C365        H375   1.084       .  S
C366        C367   1.406       .  A
C367        H376   1.084       .  S
C368        C369   1.405       .  A
C368        H377   1.085       .  S
C369        C370   1.406       .  A
C370        H378   1.084       .  S
C379        C380   1.399       .  A
C379        C384   1.403       .  A
C379        H395   1.084       .  S
C380        C381   1.403       .  A
C380        H396   1.083       .  S
C381        C391   1.403       .  A
C381        C382   1.413       .  A
C382        C388   1.410       .  A
C382        C383   1.408       .  A
C383        C385   1.412       .  A
C383        C384   1.412       .  A
C384        C392   1.401       .  A
C385        C394   1.396       .  A
C385        C386   1.402       .  A
C386        C387   1.395       .  A
C386        H397   1.084       .  S
C387        C388   1.402       .  A
C387        H398   1.083       .  S
C388        C389   1.396       .  A
C389        C390   1.404       .  A
C389        H399   1.085       .  S
C390        C391   1.405       .  A
C391        H400   1.084       .  S
C392        C393   1.404       .  A
C392        H401   1.084       .  S
C393        C394   1.402       .  A
C394        H402   1.085       .  S
C403        C404   1.398       .  A
C403        C408   1.403       .  A
C403        H419   1.084       .  S
C404        C405   1.403       .  A
C404        H420   1.084       .  S
C405        C415   1.401       .  A
C405        C406   1.412       .  A
C406        C412   1.412       .  A
C406        C407   1.410       .  A
C407        C409   1.412       .  A
C407        C408   1.411       .  A
C408        C416   1.400       .  A
C409        C418   1.402       .  A
C409        C410   1.403       .  A
C410        C411   1.398       .  A
C410        H421   1.084       .  S
C411        C412   1.403       .  A
C411        H422   1.084       .  S
C412        C413   1.401       .  A
C413        C414   1.406       .  A
C413        H423   1.084       .  S
C414        C415   1.406       .  A
C415        H424   1.085       .  S
C416        C417   1.406       .  A
C416        H425   1.084       .  S
C417        C418   1.405       .  A
C418        H426   1.084       .  S
C427        C428   1.397       .  A
C427        C432   1.403       .  A
C427        H443   1.083       .  S
C428        C429   1.402       .  A
C428        H444   1.084       .  S
C429        C439   1.400       .  A
C429        C430   1.411       .  A
C430        C436   1.412       .  A
C430        C431   1.410       .  A
C431        C433   1.411       .  A
C431        C432   1.412       .  A
C432        C440   1.401       .  A
C433        C442   1.401       .  A
C433        C434   1.404       .  A
C434        C435   1.399       .  A
C434        H445   1.084       .  S
C435        C436   1.403       .  A
C435        H446   1.084       .  S
C436        C437   1.401       .  A
C437        C438   1.407       .  A
C437        H447   1.085       .  S
C438        C439   1.404       .  A
C439        H448   1.084       .  S
C440        C441   1.404       .  A
C440        H449   1.084       .  S
C441        C442   1.406       .  A
C442        H450   1.084       .  S
C451        C452   1.400       .  A
C451        C456   1.404       .  A
C451        H467   1.084       .  S
C452        C453   1.404       .  A
C452        H468   1.084       .  S
C453        C463   1.402       .  A
C453        C454   1.412       .  A
C454        C460   1.412       .  A
C454        C455   1.409       .  A
C455        C457   1.411       .  A
C455        C456   1.412       .  A
C456        C464   1.403       .  A
C457        C466   1.397       .  A
C457        C458   1.402       .  A
C458        C459   1.395       .  A
C458        H469   1.081       .  S
C459        C460   1.401       .  A
C459        H470   1.084       .  S
C460        C461   1.396       .  A
C461        C462   1.403       .  A
C461        H471   1.085       .  S
C462        C463   1.406       .  A
C463        H472   1.084       .  S
C464        C465   1.406       .  A
C464        H473   1.084       .  S
C465        C466   1.404       .  A
C466        H474   1.084       .  S
C475        C476   1.401       .  A
C475        C480   1.404       .  A
C475        H491   1.084       .  S
C476        C477   1.404       .  A
C476        H492   1.083       .  S
C477        C487   1.405       .  A
C477        C478   1.412       .  A
C478        C484   1.411       .  A
C478        C479   1.410       .  A
C479        C481   1.411       .  A
C479        C480   1.412       .  A
C480        C488   1.404       .  A
C481        C490   1.399       .  A
C481        C482   1.401       .  A
C482        C483   1.396       .  A
C482        H493   1.081       .  S
C483        C484   1.402       .  A
C483        H494   1.084       .  S
C484        C485   1.398       .  A
C485        C486   1.403       .  A
C485        H495   1.085       .  S
C486        C487   1.406       .  A
C487        H496   1.084       .  S
C488        C489   1.407       .  A
C488        H497   1.084       .  S
C489        C490   1.404       .  A
C490        H498   1.084       .  S
C499        C500   1.401       .  A
C499        C504   1.405       .  A
C499        H515   1.083       .  S
C500        C501   1.404       .  A
C500        H516   1.084       .  S
C501        C511   1.403       .  A
C501        C502   1.411       .  A
C502        C508   1.412       .  A
C502        C503   1.408       .  A
C503        C505   1.410       .  A
C503        C504   1.413       .  A
C504        C512   1.406       .  A
C505        C514   1.393       .  A
C505        C506   1.402       .  A
C506        C507   1.394       .  A
C506        H517   1.084       .  S
C507        C508   1.401       .  A
C507        H518   1.084       .  S
C508        C509   1.395       .  A
C509        C510   1.402       .  A
C509        H519   1.085       .  S
C510        C511   1.406       .  A
C511        H520   1.084       .  S
C512        C513   1.407       .  A
C512        H521   1.084       .  S
C513        C514   1.404       .  A
C514        H522   1.085       .  S
C523        C524   1.397       .  A
C523        C528   1.403       .  A
C523        H539   1.084       .  S
C524        C525   1.403       .  A
C524        H540   1.084       .  S
C525        C535   1.399       .  A
C525        C526   1.411       .  A
C526        C532   1.412       .  A
C526        C527   1.409       .  A
C527        C529   1.412       .  A
C527        C528   1.412       .  A
C528        C536   1.400       .  A
C529        C538   1.401       .  A
C529        C530   1.403       .  A
C530        C531   1.398       .  A
C530        H541   1.084       .  S
C531        C532   1.403       .  A
C531        H542   1.084       .  S
C532        C533   1.400       .  A
C533        C534   1.406       .  A
C533        H543   1.084       .  S
C534        C535   1.406       .  A
C535        H544   1.084       .  S
C536        C537   1.403       .  A
C536        H545   1.085       .  S
C537        C538   1.403       .  A
C538        H546   1.084       .  S
C547        C548   1.399       .  A
C547        C552   1.404       .  A
C547        H563   1.083       .  S
C548        C549   1.403       .  A
C548        H564   1.083       .  S
C549        C559   1.403       .  A
C549        C550   1.412       .  A
C550        C556   1.411       .  A
C550        C551   1.410       .  A
C551        C553   1.411       .  A
C551        C552   1.412       .  A
C552        C560   1.403       .  A
C553        C562   1.399       .  A
C553        C554   1.402       .  A
C554        C555   1.396       .  A
C554        H565   1.082       .  S
C555        C556   1.402       .  A
C555        H566   1.084       .  S
C556        C557   1.398       .  A
C557        C558   1.405       .  A
C557        H567   1.085       .  S
C558        C559   1.404       .  A
C559        H568   1.084       .  S
C560        C561   1.406       .  A
C560        H569   1.084       .  S
C561        C562   1.404       .  A
C562        H570   1.084       .  S
C571        C572   1.398       .  A
C571        C576   1.403       .  A
C571        H587   1.084       .  S
C572        C573   1.403       .  A
C572        H588   1.083       .  S
C573        C583   1.402       .  A
C573        C574   1.412       .  A
C574        C580   1.411       .  A
C574        C575   1.410       .  A
C575        C577   1.411       .  A
C575        C576   1.412       .  A
C576        C584   1.402       .  A
C577        C586   1.400       .  A
C577        C578   1.403       .  A
C578        C579   1.398       .  A
C578        H589   1.084       .  S
C579        C580   1.402       .  A
C579        H590   1.082       .  S
C580        C581   1.400       .  A
C581        C582   1.405       .  A
C581        H591   1.084       .  S
C582        C583   1.406       .  A
C583        H592   1.084       .  S
C584        C585   1.404       .  A
C584        H593   1.084       .  S
C585        C586   1.406       .  A
C586        H594   1.085       .  S
C595        C596   1.398       .  A
C595        C600   1.403       .  A
C595        H611   1.083       .  S
C596        C597   1.403       .  A
C596        H612   1.084       .  S
C597        C607   1.400       .  A
C597        C598   1.411       .  A
C598        C604   1.411       .  A
C598        C599   1.410       .  A
C599        C601   1.412       .  A
C599        C600   1.412       .  A
C600        C608   1.402       .  A
C601        C610   1.401       .  A
C601        C602   1.403       .  A
C602        C603   1.398       .  A
C602        H613   1.083       .  S
C603        C604   1.403       .  A
C603        H614   1.084       .  S
C604        C605   1.400       .  A
C605        C606   1.406       .  A
C605        H615   1.084       .  S
C606        C607   1.407       .  A
C607        H616   1.084       .  S
C608        C609   1.403       .  A
C608        H617   1.084       .  S
C609        C610   1.404       .  A
C610        H618   1.085       .  S
C619        C620   1.400       .  A
C619        C624   1.403       .  A
C619        H635   1.084       .  S
C620        C621   1.404       .  A
C620        H636   1.084       .  S
C621        C631   1.404       .  A
C621        C622   1.411       .  A
C622        C628   1.411       .  A
C622        C623   1.411       .  A
C623        C625   1.412       .  A
C623        C624   1.413       .  A
C624        C632   1.405       .  A
C625        C634   1.400       .  A
C625        C626   1.402       .  A
C626        C627   1.398       .  A
C626        H637   1.084       .  S
C627        C628   1.403       .  A
C627        H638   1.084       .  S
C628        C629   1.402       .  A
C629        C630   1.409       .  A
C629        H639   1.084       .  S
C630        C631   1.409       .  A
C631        H640   1.084       .  S
C632        C633   1.403       .  A
C632        H641   1.084       .  S
C633        C634   1.402       .  A
C634        H642   1.085       .  S
C643        C644   1.401       .  A
C643        C648   1.404       .  A
C643        H659   1.084       .  S
C644        C645   1.405       .  A
C644        H660   1.083       .  S
C645        C655   1.408       .  A
C645        C646   1.412       .  A
C646        C652   1.410       .  A
C646        C647   1.411       .  A
C647        C649   1.412       .  A
C647        C648   1.412       .  A
C648        C656   1.405       .  A
C649        C658   1.399       .  A
C649        C650   1.402       .  A
C650        C651   1.396       .  A
C650        H661   1.084       .  S
C651        C652   1.403       .  A
C651        H662   1.084       .  S
C652        C653   1.398       .  A
C653        C654   1.407       .  A
C653        H663   1.084       .  S
C654        C655   1.409       .  A
C655        H664   1.084       .  S
C656        C657   1.404       .  A
C656        H665   1.084       .  S
C657        C658   1.402       .  A
C658        H666   1.085       .  S
C667        C668   1.402       .  A
C667        C672   1.405       .  A
C667        H683   1.084       .  S
C668        C669   1.405       .  A
C668        H684   1.084       .  S
C669        C679   1.408       .  A
C669        C670   1.412       .  A
C670        C676   1.411       .  A
C670        C671   1.412       .  A
C671        C673   1.411       .  A
C671        C672   1.412       .  A
C672        C680   1.408       .  A
C673        C682   1.398       .  A
C673        C674   1.402       .  A
C674        C675   1.395       .  A
C674        H685   1.084       .  S
C675        C676   1.402       .  A
C675        H686   1.084       .  S
C676        C677   1.398       .  A
C677        C678   1.404       .  A
C677        H687   1.085       .  S
C678        C679   1.409       .  A
C679        H688   1.084       .  S
C680        C681   1.408       .  A
C680        H689   1.084       .  S
C681        C682   1.404       .  A
C682        H690   1.085       .  S
C691        C692   1.399       .  A
C691        C696   1.403       .  A
C691        H707   1.084       .  S
C692        C693   1.404       .  A
C692        H708   1.084       .  S
C693        C703   1.403       .  A
C693        C694   1.411       .  A
C694        C700   1.411       .  A
C694        C695   1.410       .  A
C695        C697   1.412       .  A
C695        C696   1.412       .  A
C696        C704   1.403       .  A
C697        C706   1.400       .  A
C697        C698   1.402       .  A
C698        C699   1.397       .  A
C698        H709   1.084       .  S
C699        C700   1.403       .  A
C699        H710   1.083       .  S
C700        C701   1.401       .  A
C701        C702   1.407       .  A
C701        H711   1.084       .  S
C702        C703   1.409       .  A
C703        H712   1.084       .  S
C704        C705   1.404       .  A
C704        H713   1.085       .  S
C705        C706   1.401       .  A
C706        H714   1.085       .  S
C715        C716   1.397       .  A
C715        C720   1.402       .  A
C715        H731   1.084       .  S
C716        C717   1.403       .  A
C716        H732   1.083       .  S
C717        C727   1.401       .  A
C717        C718   1.412       .  A
C718        C724   1.410       .  A
C718        C719   1.408       .  A
C719        C721   1.413       .  A
C719        C720   1.411       .  A
C720        C728   1.398       .  A
C721        C730   1.401       .  A
C721        C722   1.403       .  A
C722        C723   1.398       .  A
C722        H733   1.084       .  S
C723        C724   1.403       .  A
C723        H734   1.084       .  S
C724        C725   1.398       .  A
C725        C726   1.407       .  A
C725        H735   1.084       .  S
C726        C727   1.406       .  A
C727        H736   1.084       .  S
C728        C729   1.401       .  A
C728        H737   1.085       .  S
C729        C730   1.403       .  A
C730        H738   1.085       .  S
C739        C740   1.399       .  A
C739        C744   1.404       .  A
C739        H755   1.083       .  S
C740        C741   1.403       .  A
C740        H756   1.084       .  S
C741        C751   1.402       .  A
C741        C742   1.412       .  A
C742        C748   1.412       .  A
C742        C743   1.410       .  A
C743        C745   1.411       .  A
C743        C744   1.412       .  A
C744        C752   1.404       .  A
C745        C754   1.398       .  A
C745        C746   1.403       .  A
C746        C747   1.397       .  A
C746        H757   1.084       .  S
C747        C748   1.402       .  A
C747        H758   1.084       .  S
C748        C749   1.399       .  A
C749        C750   1.404       .  A
C749        H759   1.085       .  S
C750        C751   1.405       .  A
C751        H760   1.084       .  S
C752        C753   1.406       .  A
C752        H761   1.084       .  S
C753        C754   1.406       .  A
C754        H762   1.085       .  S
C763        C764   1.397       .  A
C763        C768   1.402       .  A
C763        H779   1.084       .  S
C764        C765   1.403       .  A
C764        H780   1.084       .  S
C765        C775   1.398       .  A
C765        C766   1.410       .  A
C766        C772   1.413       .  A
C766        C767   1.410       .  A
C767        C769   1.411       .  A
C767        C768   1.413       .  A
C768        C776   1.400       .  A
C769        C778   1.402       .  A
C769        C770   1.403       .  A
C770        C771   1.400       .  A
C770        H781   1.084       .  S
C771        C772   1.404       .  A
C771        H782   1.083       .  S
C772        C773   1.406       .  A
C773        C774   1.405       .  A
C773        H783   1.084       .  S
C774        C775   1.408       .  A
C775        H784   1.085       .  S
C776        C777   1.404       .  A
C776        H785   1.085       .  S
C777        C778   1.405       .  A
C778        H786   1.084       .  S
C787        C788   1.398       .  A
C787        C792   1.404       .  A
C787        H803   1.084       .  S
C788        C789   1.403       .  A
C788        H804   1.084       .  S
C789        C799   1.403       .  A
C789        C790   1.413       .  A
C790        C796   1.412       .  A
C790        C791   1.412       .  A
C791        C793   1.412       .  A
C791        C792   1.410       .  A
C792        C800   1.401       .  A
C793        C802   1.405       .  A
C793        C794   1.404       .  A
C794        C795   1.400       .  A
C794        H805   1.083       .  S
C795        C796   1.403       .  A
C795        H806   1.084       .  S
C796        C797   1.403       .  A
C797        C798   1.404       .  A
C797        H807   1.084       .  S
C798        C799   1.403       .  A
C799        H808   1.085       .  S
C800        C801   1.409       .  A
C800        H809   1.084       .  S
C801        C802   1.408       .  A
C802        H810   1.084       .  S
C811        C812   1.398       .  A
C811        C816   1.403       .  A
C811        H827   1.084       .  S
C812        C813   1.403       .  A
C812        H828   1.084       .  S
C813        C823   1.402       .  A
C813        C814   1.412       .  A
C814        C820   1.411       .  A
C814        C815   1.409       .  A
C815        C817   1.413       .  A
C815        C816   1.412       .  A
C816        C824   1.401       .  A
C817        C826   1.401       .  A
C817        C818   1.403       .  A
C818        C819   1.398       .  A
C818        H829   1.084       .  S
C819        C820   1.403       .  A
C819        H830   1.084       .  S
C820        C821   1.399       .  A
C821        C822   1.408       .  A
C821        H831   1.084       .  S
C822        C823   1.405       .  A
C823        H832   1.084       .  S
C824        C825   1.403       .  A
C824        H833   1.085       .  S
C825        C826   1.403       .  A
C826        H834   1.085       .  S
