geometry optimzed in LAMMPS
_audit_creation_date              2020-12-01 
_audit_creation_method            'lammps2cif' 
_symmetry_space_group_name_H-M    'P1' 
_symmetry_Int_Tables_number       1 
_symmetry_cell_setting            triclinic 
loop_ 
_symmetry_equiv_pos_as_xyz 
  x,y,z 
_cell_length_a                    26.82582946 
_cell_length_b                    26.99513659998415 
_cell_length_c                    78.07799912158248 
_cell_angle_alpha                 90.0027119648431 
_cell_angle_beta                  89.96464482932643 
_cell_angle_gamma                 90.01729595812049 
loop_ 
_atom_site_label 
_atom_site_type_symbol 
_atom_site_fract_x 
_atom_site_fract_y 
_atom_site_fract_z 
_atom_site_charge 
C1          C  0.50170889  0.06851064  0.24137493     0.86800
C2          C  0.45557091  0.05999794  0.25294188    -0.53500
C3          C  0.45594606  0.01617670  0.26170803     0.09700
C4          C  0.50270422  0.98438087  0.25820386     0.20600
C5          C  0.54595874  0.06264876  0.25362039    -0.54200
C6          C  0.54704114  0.01897455  0.26240716     0.09800
C7          C  0.50238325  0.02215573  0.22991809    -0.53700
C8          C  0.50418843  0.97811242  0.23851024     0.10400
H9          H  0.42428193  0.08492643  0.25423413     0.14900
H10         H  0.50294415  0.94859797  0.26517039     0.00600
H11         H  0.57471308  0.09072170  0.25501511     0.15200
H12         H  0.50200210  0.02419545  0.21602331     0.15000
C13         C  0.95577396  0.54352981  0.01015603     0.02600
C14         C  0.95591574  0.54687908  0.99214309     0.02500
C15         C  0.00159099  0.54971705  0.98337505    -0.18000
C16         C  0.04712816  0.55098449  0.99229233     0.02600
C17         C  0.04633742  0.54857310  0.01041098     0.02500
C18         C  0.00083130  0.54479305  0.01907882    -0.18000
H19         H  0.00048511  0.54248010  0.03295201     0.04600
H20         H  0.00164586  0.55051257  0.96949240     0.04600
C21         C  0.49740432  0.06046192  0.76212353     0.86800
C22         C  0.54465478  0.05673032  0.75104249    -0.53500
C23         C  0.54609431  0.01628679  0.74055200     0.09700
C24         C  0.50032660  0.98183186  0.74234603     0.20600
C25         C  0.45351257  0.05623319  0.74953324    -0.54200
C26         C  0.45465151  0.01531377  0.73913769     0.09800
C27         C  0.49724704  0.01044710  0.77178601    -0.53700
C28         C  0.49717719  0.96966122  0.76150776     0.10400
H29         H  0.57485176  0.08349643  0.75159233     0.14900
H30         H  0.50176540  0.94798223  0.73436279     0.00600
H31         H  0.42325812  0.08295716  0.74922217     0.15200
H32         H  0.49840571  0.00589008  0.78553213     0.15000
C33         C  0.00318212  0.42120119  0.74152400     0.86800
C34         C  0.04880771  0.42771009  0.75344199    -0.53500
C35         C  0.04829222  0.47021370  0.76293130     0.09700
C36         C  0.00335958  0.50400634  0.75914793     0.20600
C37         C  0.95837607  0.42736842  0.75359722    -0.54200
C38         C  0.95781964  0.47068291  0.76269634     0.09800
C39         C  0.00426605  0.46840999  0.73050005    -0.53700
C40         C  0.00354934  0.51153739  0.73957982     0.10400
H41         H  0.07971917  0.40227617  0.75460504     0.14900
H42         H  0.00335721  0.53957907  0.76621472     0.00600
H43         H  0.92899160  0.39981717  0.75464148     0.15200
H44         H  0.00518968  0.46776339  0.71659275     0.15000
C45         C  0.48228107  0.97499538  0.00983222     0.02600
C46         C  0.47919686  0.97506808  0.99174624     0.02500
C47         C  0.47883298  0.02056432  0.98296195    -0.18000
C48         C  0.48036426  0.06588089  0.99178962     0.02600
C49         C  0.48331841  0.06565588  0.00986484     0.02500
C50         C  0.48349828  0.02026734  0.01866822    -0.18000
H51         H  0.48566680  0.02017473  0.03253685     0.04600
H52         H  0.47863585  0.02078107  0.96907808     0.04600
C53         C  0.65498286  0.52914211  0.91582558     0.42700
N54         N  0.60554268  0.50414995  0.89612387     0.01600
C55         C  0.45604056  0.64547798  0.84286471    -0.06200
H56         H  0.41484977  0.66372816  0.90803627     0.07100
C57         C  0.37142625  0.48097764  0.90954076    -0.06600
Co58       Co  0.56306146  0.58854890  0.87604154     0.74200
N59         N  0.47200095  0.62581320  0.89364145    -0.25800
Co60       Co  0.43422472  0.58253348  0.87579268     0.74100
C61         C  0.35148002  0.52666077  0.91690719     0.42800
N62         N  0.48168576  0.42066136  0.89781598     0.01200
N63         N  0.39780344  0.54459698  0.89538293     0.01400
N64         N  0.54017992  0.64973021  0.84393363    -0.46600
H65         H  0.64033706  0.61105697  0.90943034     0.07100
N66         N  0.52110921  0.62833618  0.89380706     0.01600
N67         N  0.39737633  0.53790233  0.85804964     0.01400
C68         C  0.34906674  0.51189058  0.83812117     0.43000
N69         N  0.53086504  0.42202289  0.89747594    -0.25200
C70         C  0.63466920  0.56450322  0.84613938    -0.06200
N71         N  0.63667889  0.48832662  0.90808589    -0.46300
N72         N  0.36635377  0.55305958  0.84594178    -0.46600
C73         C  0.65703630  0.51995509  0.83873828     0.42800
N74         N  0.52207113  0.62207191  0.85650624     0.01600
N75         N  0.53061846  0.41682800  0.86028709    -0.25300
N76         N  0.60297075  0.55299181  0.89538565    -0.25700
N77         N  0.48151891  0.41460514  0.86049073     0.01300
H78         H  0.58657724  0.37776675  0.84588037     0.07200
H79         H  0.36344300  0.43035282  0.84517522     0.07200
N80         N  0.47293691  0.61934849  0.85629138    -0.25800
N81         N  0.39993868  0.49583194  0.89638695    -0.25400
N82         N  0.60588637  0.49919557  0.85879698     0.01600
C83         C  0.49779455  0.67981039  0.91310518     0.43000
C84         C  0.54835347  0.39302850  0.91007828    -0.06700
N85         N  0.39994286  0.48917438  0.85908591    -0.25400
H86         H  0.36463831  0.44296102  0.91324593     0.07200
N87         N  0.53815656  0.66066815  0.90515530    -0.46600
H88         H  0.58720731  0.38497834  0.91250439     0.07200
C89         C  0.50289618  0.36199528  0.84106659     0.42900
C90         C  0.63276822  0.57210652  0.90748666    -0.06200
Co91       Co  0.56902856  0.45996061  0.87813716     0.73800
N92         N  0.46411132  0.39152061  0.91007350    -0.46300
C93         C  0.50083015  0.66495635  0.83452947     0.43100
N94         N  0.63779662  0.48101606  0.84747507    -0.46300
Co95       Co  0.44010653  0.45439695  0.87847869     0.73900
C96         C  0.37069086  0.46943068  0.84696368    -0.06700
C97         C  0.45388017  0.65666223  0.90556107    -0.06200
N98         N  0.60376214  0.54796160  0.85831109    -0.25800
N99         N  0.36872423  0.56443852  0.90725675    -0.46500
H100        H  0.41727052  0.65169697  0.83974088     0.07100
C101        C  0.54764890  0.38510953  0.84840707    -0.06600
Cl102      Cl  0.50161503  0.52132858  0.87711225    -0.49600
C103        C  0.50395297  0.37353485  0.91861682     0.42900
H104        H  0.64251174  0.60311337  0.84391815     0.07100
N105        N  0.46363822  0.38224599  0.84934389    -0.46400
C106        C  0.50042011  0.66639558  0.16666469     0.42700
N107        N  0.52074888  0.62123804  0.14506365     0.01600
C108        C  0.36562237  0.47963736  0.09394318    -0.06200
H109        H  0.36129585  0.42818084  0.15671658     0.07100
C110        C  0.54867391  0.38561208  0.15262994    -0.06600
Co111      Co  0.43127670  0.58150037  0.12687262     0.74200
N112        N  0.39877266  0.48771664  0.14368948    -0.25800
Co113      Co  0.43761333  0.45342677  0.12386121     0.74100
C114        C  0.50481629  0.36276641  0.16049374     0.42800
N115        N  0.60578487  0.49831025  0.14107199     0.01200
N116        N  0.48106611  0.41392913  0.14117502     0.01400
N117        N  0.36159726  0.56310475  0.09670275    -0.46600
H118        H  0.41671616  0.65254328  0.16205374     0.07100
N119        N  0.39621546  0.53635968  0.14501508     0.01600
N120        N  0.47696412  0.41994564  0.10398853     0.01400
C121        C  0.49675247  0.37394645  0.08259968     0.43000
N122        N  0.60355363  0.54713578  0.14194853    -0.25200
C123        C  0.44770813  0.65695659  0.09704015    -0.06200
N124        N  0.53936285  0.65044889  0.15712297    -0.46300
N125        N  0.45805623  0.39054476  0.09206203    -0.46600
C126        C  0.49088500  0.67900942  0.08859537     0.42800
N127        N  0.39299059  0.54343810  0.10784171     0.01600
N128        N  0.59821412  0.55325490  0.10502275    -0.25300
N129        N  0.47166710  0.61832475  0.14575067    -0.25700
N130        N  0.60071827  0.50448345  0.10392217     0.01300
H131        H  0.63581299  0.61208157  0.09149237     0.07200
H132        H  0.58060802  0.38709558  0.08709644     0.07200
N133        N  0.39565609  0.49471875  0.10662103    -0.25800
N134        N  0.53020290  0.41641144  0.14070343    -0.25400
N135        N  0.51609164  0.62766962  0.10766418     0.01600
C136        C  0.34562033  0.50930640  0.16430526     0.43000
C137        C  0.63680008  0.56299004  0.15353251    -0.06700
N138        N  0.52604416  0.42233295  0.10337904    -0.25400
H139        H  0.58776210  0.37840002  0.15491949     0.07200
N140        N  0.36430541  0.55079622  0.15699366    -0.46600
H141        H  0.64535485  0.60127770  0.15636470     0.07200
C142        C  0.64970169  0.53066435  0.08422533     0.42900
C143        C  0.45539144  0.64568537  0.15893300    -0.06200
Co144      Co  0.56014080  0.58804930  0.12494002     0.73800
N145        N  0.63984774  0.47936916  0.15145957    -0.46300
C146        C  0.34357125  0.52509549  0.08739605     0.43100
N147        N  0.53199359  0.65966295  0.09597823    -0.46300
Co148      Co  0.56638137  0.45975772  0.12226467     0.73900
C149        C  0.54204560  0.39441235  0.09025594    -0.06700
C150        C  0.36860541  0.46739893  0.15541301    -0.06200
N151        N  0.46700002  0.62551587  0.10858543    -0.25800
N152        N  0.46439833  0.38212467  0.15272933    -0.46500
H153        H  0.35842631  0.44160620  0.09035475     0.07100
C154        C  0.62775612  0.57306936  0.09300410    -0.06600
Cl155      Cl  0.49889611  0.52067977  0.12451527    -0.49600
C156        C  0.66085320  0.51797322  0.15973132     0.42900
H157        H  0.40850119  0.66455650  0.09518555     0.07100
N158        N  0.63178245  0.48941108  0.09179821    -0.46400
C159        C  0.15844754  0.97750062  0.66026197     0.42700
N160        N  0.10730433  0.95126466  0.64108633     0.01600
C161        C  0.94231186  0.09400948  0.59355163    -0.06200
H162        H  0.91694981  0.10629995  0.65844331     0.07100
C163        C  0.87440992  0.92287069  0.66019852    -0.06600
Co164      Co  0.05869939  0.03487145  0.62210683     0.74200
N165        N  0.97134508  0.06971722  0.64254128    -0.25800
Co166      Co  0.93034935  0.02632786  0.62567717     0.74100
C167        C  0.85323170  0.96788100  0.66774296     0.42800
N168        N  0.98573839  0.86520058  0.64606395     0.01200
N169        N  0.89834348  0.98728907  0.64596156     0.01400
N170        N  0.02622122  0.09955519  0.59173080    -0.46600
H171        H  0.14032325  0.05906218  0.65387359     0.07100
N172        N  0.02026266  0.07337067  0.64126079     0.01600
N173        N  0.89129197  0.98132553  0.60874846     0.01400
C174        C  0.84319926  0.95468750  0.58899106     0.43000
N175        N  0.03468094  0.86739973  0.64438665    -0.25200
C176        C  0.12126464  0.01065276  0.58938176    -0.06200
N177        N  0.13982967  0.93633106  0.65276338    -0.46300
N178        N  0.85987020  0.99615038  0.59673936    -0.46600
C179        C  0.14127069  0.96571246  0.58147385     0.42800
N180        N  0.01234359  0.06850630  0.60401526     0.01600
N181        N  0.02593420  0.86303566  0.60721205    -0.25300
N182        N  0.10379996  0.99997602  0.64024459    -0.25700
N183        N  0.97710458  0.85977006  0.60885120     0.01300
H184        H  0.07846195  0.82705008  0.59031372     0.07200
H185        H  0.85988166  0.87328703  0.59554332     0.07200
N186        N  0.96344767  0.06509954  0.60547452    -0.25800
N187        N  0.90177370  0.93860727  0.64686244    -0.25400
N188        N  0.09866315  0.94600683  0.60378597     0.01600
C189        C  0.00051727  0.12417055  0.66131233     0.43000
C190        C  0.05551331  0.83839469  0.65638849    -0.06700
N191        N  0.89488898  0.93263800  0.60966123    -0.25400
H192        H  0.86820475  0.88457403  0.66367311     0.07200
N193        N  0.03919737  0.10588850  0.65217964    -0.46600
H194        H  0.09493735  0.83099148  0.65775005     0.07200
C195        C  0.99437578  0.81033205  0.58815970     0.42900
C196        C  0.13462539  0.01982806  0.65186997    -0.06200
Co197      Co  0.06754960  0.90634749  0.62411303     0.73800
N198        N  0.97152302  0.83559168  0.65868866    -0.46300
C199        C  0.98400403  0.11689472  0.58444035     0.43100
N200        N  0.12650214  0.92734355  0.59135763    -0.46300
Co201      Co  0.93927441  0.89836390  0.62796680     0.73900
C202        C  0.86557603  0.91247528  0.59766258    -0.06700
C203        C  0.95546892  0.10004538  0.65496665    -0.06200
N204        N  0.09538406  0.99474464  0.60303338    -0.25800
N205        N  0.86906148  0.00610027  0.65798025    -0.46500
H206        H  0.90274017  0.10030216  0.59211541     0.07100
C207        C  0.04039773  0.83331127  0.59433900    -0.06600
Cl208      Cl  0.99899398  0.96648958  0.62499924    -0.49600
C209        C  0.01350569  0.81806193  0.66605257     0.42900
H210        H  0.12730739  0.04899493  0.58593131     0.07100
N211        N  0.95687568  0.82855524  0.59779111    -0.46400
C212        C  0.00117830  0.12719518  0.34238077     0.42700
N213        N  0.98083055  0.07456093  0.36179221     0.01600
C214        C  0.13352875  0.91502699  0.40730619    -0.06200
H215        H  0.14312694  0.88660514  0.34323010     0.07100
C216        C  0.95296688  0.84259806  0.34437611    -0.06600
Co217      Co  0.06960836  0.02830503  0.37861165     0.74200
N218        N  0.10323573  0.94096594  0.35817718    -0.25800
Co219      Co  0.06276506  0.90032442  0.37620270     0.74100
C220        C  0.99710769  0.82325804  0.33554795     0.42800
N221        N  0.89571601  0.95170471  0.35974466     0.01200
N222        N  0.02006809  0.86734855  0.35706289     0.01400
N223        N  0.13810302  0.99868949  0.40834922    -0.46600
H224        H  0.08494132  0.11117683  0.34621523     0.07100
N225        N  0.10566299  0.98978430  0.35892426     0.01600
N226        N  0.02181589  0.86115689  0.39448271     0.01400
C227        C  0.00070861  0.81278762  0.41507656     0.43000
N228        N  0.89838952  0.00038043  0.36102470    -0.25200
C229        C  0.05230705  0.09356458  0.41086121    -0.06200
N230        N  0.96223608  0.10724680  0.35088709    -0.46300
N231        N  0.04003361  0.83074060  0.40622908    -0.46600
C232        C  0.00924570  0.11540800  0.41946477     0.42800
N233        N  0.10700955  0.98362266  0.39624580     0.01600
N234        N  0.90164472  0.99366118  0.39824460    -0.25300
N235        N  0.02994620  0.07193301  0.36114108    -0.25700
N236        N  0.89839269  0.94499127  0.39707131     0.01300
H237        H  0.86803413  0.04690832  0.41534102     0.07200
H238        H  0.91724885  0.82857223  0.41086784     0.07200
N239        N  0.10407292  0.93488971  0.39528552    -0.25800
N240        N  0.97091782  0.86958697  0.35743879    -0.25400
N241        N  0.98401219  0.06832653  0.39903471     0.01600
C242        C  0.15811151  0.96979623  0.33930270     0.43000
C243        C  0.86776156  0.02059101  0.34942874    -0.06700
N244        N  0.97272642  0.86382176  0.39491073    -0.25400
H245        H  0.91394877  0.83565678  0.34184951     0.07200
N246        N  0.13851272  0.00846269  0.34798448    -0.46600
H247        H  0.86109208  0.05983960  0.34789023     0.07200
C248        C  0.85337075  0.96343640  0.41887688     0.42900
C249        C  0.04626924  0.10361990  0.34913448    -0.06200
Co250      Co  0.94059846  0.03488786  0.38006263     0.73800
N251        N  0.86361195  0.93712258  0.34785333    -0.46300
C252        C  0.15526278  0.95738704  0.41609413     0.43100
N253        N  0.96817871  0.09818086  0.41138640    -0.46300
Co254      Co  0.93361191  0.90675843  0.37722378     0.73900
C255        C  0.95595090  0.83474829  0.40762095    -0.06700
C256        C  0.13473413  0.92494505  0.34602657    -0.06200
N257        N  0.03307190  0.06563779  0.39832280    -0.25800
N258        N  0.03715443  0.83943495  0.34440630    -0.46500
H259        H  0.14049832  0.87593013  0.40914299     0.07100
C260        C  0.87423084  0.00880856  0.41162148    -0.06600
Cl261      Cl  0.00165052  0.96761149  0.37796706    -0.49600
C262        C  0.84468497  0.97858797  0.34061476     0.42900
H263        H  0.09161091  0.09942651  0.41311150     0.07100
N264        N  0.86907303  0.92554264  0.40895782    -0.46400
C265        C  0.98062579  0.51399916  0.51000091     0.02600
C266        C  0.98906349  0.51369547  0.49205931     0.02500
C267        C  0.99195119  0.46799429  0.48343476    -0.18000
C268        C  0.98814121  0.42278143  0.49228756     0.02600
C269        C  0.98223687  0.42327418  0.51024390     0.02500
C270        C  0.97753257  0.46866565  0.51881126    -0.18000
H271        H  0.97261103  0.46867261  0.53259880     0.04600
H272        H  0.99808052  0.46760805  0.46970938     0.04600
C273        C  0.54527912  0.95557995  0.51153405     0.02600
C274        C  0.54768175  0.95707968  0.49347764     0.02500
C275        C  0.50337712  0.95756924  0.48401556    -0.18000
C276        C  0.45692989  0.95915357  0.49217731     0.02600
C277        C  0.45435550  0.96041624  0.51025848     0.02500
C278        C  0.49871823  0.95795466  0.51973149    -0.18000
H279        H  0.49701819  0.95770909  0.53360872     0.04600
H280        H  0.50509392  0.95741921  0.47013590     0.04600
C281        C  0.99606681  0.42399480  0.26152501     0.86800
C282        C  0.94955301  0.43177946  0.25010250    -0.53500
C283        C  0.95044450  0.47419313  0.24055006     0.09700
C284        C  0.99775194  0.50563059  0.24325692     0.20600
C285        C  0.03988202  0.42739594  0.24895512    -0.54200
C286        C  0.04119670  0.46978830  0.23944751     0.09800
C287        C  0.99811510  0.47191393  0.27215829    -0.53700
C288        C  0.00008147  0.51466064  0.26278819     0.10400
H289        H  0.91776120  0.40730861  0.24938375     0.14900
H290        H  0.99839694  0.54025741  0.23560671     0.00600
H291        H  0.06831884  0.39889222  0.24794153     0.15200
H292        H  0.99810487  0.47191104  0.28607126     0.15000
C293        C  0.96565999  0.73821331  0.29798995    -0.22200
C294        C  0.99994564  0.69980738  0.30058732     0.09800
C295        C  0.03538782  0.70384978  0.31385849     0.10200
C296        C  0.03464321  0.74553685  0.32461185    -0.17100
C297        C  0.99910228  0.78329900  0.32248886    -0.27500
C298        C  0.96530791  0.78033886  0.30857307     0.18500
C299        C  0.99689150  0.65452478  0.28984131     0.12500
C300        C  0.07296753  0.66338156  0.31700117    -0.11900
H301        H  0.06092741  0.74774006  0.33512295     0.12800
C302        C  0.92963487  0.82135529  0.30407190    -0.22700
H303        H  0.93905272  0.73533072  0.28758760     0.08400
C304        C  0.96280454  0.61644317  0.29373140     0.04700
C305        C  0.96424977  0.57215469  0.28434987    -0.19900
C306        C  0.99946246  0.56440142  0.27124693    -0.12200
C307        C  0.03306919  0.60333906  0.26714839     0.13500
C308        C  0.03074515  0.64806152  0.27636065    -0.22700
C309        C  0.92566446  0.62213095  0.30807708    -0.05700
H310        H  0.93789234  0.54301637  0.28740258     0.15000
C311        C  0.07379596  0.59877682  0.25398964    -0.15900
H312        H  0.05703496  0.67745019  0.27348894     0.09300
H313        H  0.89074369  0.80848411  0.30603290     0.07200
H314        H  0.93459654  0.83169153  0.29040950     0.08400
H315        H  0.93597137  0.85543007  0.31162788     0.07400
H316        H  0.09691014  0.65863873  0.30551847     0.02300
H317        H  0.05338255  0.62800775  0.31973308     0.02800
H318        H  0.09750031  0.67201132  0.32806096     0.06300
H319        H  0.90207888  0.58858693  0.30957340     0.05300
H320        H  0.90077701  0.65406150  0.30542749    -0.00500
H321        H  0.94559985  0.62855263  0.32033757     0.01000
H322        H  0.06684745  0.62517000  0.24334808     0.04600
H323        H  0.07712137  0.56122005  0.24870692     0.06600
H324        H  0.11027089  0.60768162  0.25996483     0.07400
C325        C  0.96072257  0.24389240  0.31828837    -0.22200
C326        C  0.99920663  0.24844629  0.30623387     0.09800
C327        C  0.03745921  0.21252340  0.30585661     0.10200
C328        C  0.03668732  0.17339681  0.31771645    -0.17100
C329        C  0.99826087  0.16864998  0.32984136    -0.27500
C330        C  0.95930171  0.20426004  0.32996575     0.18500
C331        C  0.99882665  0.29147991  0.29429855     0.12500
C332        C  0.07863986  0.21476899  0.29274359    -0.11900
H333        H  0.06621229  0.14603608  0.31739177     0.12800
C334        C  0.91674674  0.20189003  0.34256315    -0.22700
H335        H  0.93168107  0.27180214  0.31858907     0.08400
C336        C  0.96290887  0.29616340  0.28125687     0.04700
C337        C  0.96306135  0.33841826  0.27073394    -0.19900
C338        C  0.99864746  0.37674489  0.27268251    -0.12200
C339        C  0.03707260  0.36947078  0.28513116     0.13500
C340        C  0.03535629  0.32808685  0.29602814    -0.22700
C341        C  0.92501108  0.25588905  0.27810615    -0.05700
H342        H  0.93557748  0.33982162  0.26076309     0.15000
C343        C  0.08136491  0.40342792  0.28751109    -0.15900
H344        H  0.06341226  0.32400941  0.30592054     0.09300
H345        H  0.89458352  0.16774117  0.34039192     0.07200
H346        H  0.89102216  0.23387411  0.34115433     0.08400
H347        H  0.93140527  0.20235303  0.35585719     0.07400
H348        H  0.10119267  0.24878660  0.29456391     0.02300
H349        H  0.06240876  0.21478354  0.27966670     0.02800
H350        H  0.10417342  0.18252693  0.29378965     0.06300
H351        H  0.90085985  0.26434203  0.26693631     0.05300
H352        H  0.90050492  0.25151241  0.28944920    -0.00500
H353        H  0.94442490  0.22033419  0.27552453     0.01000
H354        H  0.08056760  0.41936801  0.30061674     0.04600
H355        H  0.08366372  0.43431506  0.27831383     0.06600
H356        H  0.11623026  0.38166767  0.28599598     0.07400
C357        C  0.03224581  0.24227784  0.43929210    -0.22200
C358        C  0.00225953  0.23973755  0.45393889     0.09800
C359        C  0.97506503  0.19612432  0.45739779     0.10200
C360        C  0.97853437  0.15580660  0.44602873    -0.17100
C361        C  0.00889322  0.15813284  0.43138272    -0.27500
C362        C  0.03578376  0.20222419  0.42789822     0.18500
C363        C  0.99779375  0.28466318  0.46476156     0.12500
C364        C  0.94245472  0.19233752  0.47304850    -0.11900
H365        H  0.95742206  0.12233942  0.44855509     0.12800
C366        C  0.06609747  0.20865977  0.41178136    -0.22700
H367        H  0.05227908  0.27630438  0.43661681     0.08400
C368        C  0.03474057  0.29764997  0.47680890     0.04700
C369        C  0.03124193  0.34319813  0.48543576    -0.19900
C370        C  0.99092736  0.37539317  0.48259379    -0.12200
C371        C  0.95302003  0.36136184  0.47098759     0.13500
C372        C  0.95723084  0.31639729  0.46207130    -0.22700
C373        C  0.07743113  0.26320662  0.48065405    -0.05700
H374        H  0.06004358  0.35377598  0.49444248     0.15000
C375        C  0.90751535  0.39312721  0.46827936    -0.15900
H376        H  0.92889851  0.30597086  0.45285572     0.09300
H377        H  0.09893026  0.18382685  0.41200379     0.07200
H378        H  0.08036125  0.24710349  0.41045728     0.08400
H379        H  0.04273454  0.20053025  0.40038418     0.07400
H380        H  0.91291239  0.22108787  0.47257010     0.02300
H381        H  0.96531339  0.19790933  0.48474483     0.02800
H382        H  0.92410676  0.15554166  0.47395836     0.06300
H383        H  0.10253215  0.27862645  0.49063192     0.05300
H384        H  0.09971843  0.25674956  0.46888473    -0.00500
H385        H  0.06268331  0.22726728  0.48537952     0.01000
H386        H  0.91826247  0.42936353  0.46270337     0.04600
H387        H  0.88834554  0.39924172  0.48070908     0.06600
H388        H  0.88058635  0.37540160  0.45938439     0.07400
C389        C  0.03226793  0.69279709  0.43826728    -0.22200
C390        C  0.99842638  0.69412644  0.45190826     0.09800
C391        C  0.96815167  0.73631816  0.45428461     0.10200
C392        C  0.97004748  0.77487412  0.44216556    -0.17100
C393        C  0.00289465  0.77290950  0.42813297    -0.27500
C394        C  0.03526764  0.73175445  0.42641839     0.18500
C395        C  0.99405301  0.64941898  0.46284347     0.12500
C396        C  0.93459302  0.74089241  0.46969128    -0.11900
H397        H  0.94592554  0.80678970  0.44367875     0.12800
C398        C  0.07148701  0.72731833  0.41173635    -0.22700
H399        H  0.05568439  0.66039146  0.43667854     0.08400
C400        C  0.95770855  0.61289338  0.45944982     0.04700
C401        C  0.95749221  0.56902390  0.46909645    -0.19900
C402        C  0.99330281  0.56025945  0.48186958    -0.12200
C403        C  0.03139907  0.59584994  0.48456951     0.13500
C404        C  0.03048773  0.64047176  0.47531675    -0.22700
C405        C  0.92009447  0.61950035  0.44529487    -0.05700
H406        H  0.92896357  0.54139750  0.46674757     0.15000
C407        C  0.07498229  0.58708569  0.49633654    -0.15900
H408        H  0.05957266  0.66773258  0.47737413     0.09300
H409        H  0.09197083  0.69157531  0.41202884     0.07200
H410        H  0.09955818  0.75744441  0.41245941     0.08400
H411        H  0.05116006  0.72944503  0.39937460     0.07400
H412        H  0.95733633  0.73910500  0.48155475     0.02300
H413        H  0.90693883  0.71038470  0.46991059     0.02800
H414        H  0.91395112  0.77656069  0.46969706     0.06300
H415        H  0.89498546  0.58694604  0.44417008     0.05300
H416        H  0.93969118  0.62428647  0.43287583    -0.00500
H417        H  0.89668474  0.65256621  0.44776369     0.01000
H418        H  0.11023103  0.59062239  0.48897650     0.04600
H419        H  0.07474015  0.54964979  0.50214393     0.06600
H420        H  0.07488817  0.61525195  0.50670311     0.07400
C421        C  0.28883688  0.95300069  0.43158304    -0.22200
C422        C  0.28191265  0.95373841  0.44937429     0.09800
C423        C  0.23319834  0.95542134  0.45620238     0.10200
C424        C  0.19233560  0.95673851  0.44498485    -0.17100
C425        C  0.19935516  0.95622071  0.42719891    -0.27500
C426        C  0.24812064  0.95396321  0.42036766     0.18500
C427        C  0.32636838  0.95417924  0.46056178     0.12500
C428        C  0.22441043  0.95505205  0.47527341    -0.11900
H429        H  0.15476917  0.95808759  0.45009185     0.12800
C430        C  0.25863863  0.95265614  0.40138579    -0.22700
H431        H  0.32635869  0.95194644  0.42641372     0.08400
C432        C  0.35653100  0.91178480  0.46264709     0.04700
C433        C  0.39906978  0.91477030  0.47300076    -0.19900
C434        C  0.41174741  0.95896559  0.48138311    -0.12200
C435        C  0.38166765  0.00146022  0.47922860     0.13500
C436        C  0.33921117  0.99842705  0.46885622    -0.22700
C437        C  0.34345395  0.86330666  0.45420751    -0.05700
H438        H  0.42239879  0.88236076  0.47473560     0.15000
C439        C  0.39377072  0.05069125  0.48731067    -0.15900
H440        H  0.31624439  0.03104636  0.46702351     0.09300
H441        H  0.27899164  0.91806328  0.39817357     0.07200
H442        H  0.28220203  0.98487140  0.39782331     0.08400
H443        H  0.22449192  0.95395675  0.39342816     0.07400
H444        H  0.24131170  0.98839657  0.48121502     0.02300
H445        H  0.24140756  0.92137068  0.48097644     0.02800
H446        H  0.18402573  0.95503208  0.47841148     0.06300
H447        H  0.37031706  0.83361362  0.45763793     0.05300
H448        H  0.34395515  0.86752479  0.44007548    -0.00500
H449        H  0.30573178  0.85135894  0.45836220     0.01000
H450        H  0.39710364  0.07935296  0.47717775     0.04600
H451        H  0.42929640  0.05035156  0.49451766     0.06600
H452        H  0.36334270  0.06136115  0.49622586     0.07400
C453        C  0.77110521  0.98210689  0.45811022    -0.22200
C454        C  0.72854034  0.95545450  0.45327079     0.09800
C455        C  0.72750519  0.93101453  0.43729884     0.10200
C456        C  0.76978463  0.93259511  0.42672824    -0.17100
C457        C  0.81228238  0.95974565  0.43142262    -0.27500
C458        C  0.81311012  0.98460368  0.44739774     0.18500
C459        C  0.68426068  0.95619843  0.46460018     0.12500
C460        C  0.68101541  0.90537686  0.43102934    -0.11900
H461        H  0.76887063  0.91423718  0.41438212     0.12800
C462        C  0.85775308  0.01306595  0.45378340    -0.22700
H463        H  0.77146275  0.00122984  0.47032567     0.08400
C464        C  0.67229007  0.91606442  0.47544570     0.04700
C465        C  0.62763983  0.91729831  0.48485357    -0.19900
C466        C  0.59578418  0.95851408  0.48408181    -0.12200
C467        C  0.60968632  0.00003342  0.47407562     0.13500
C468        C  0.65333779  0.99794539  0.46424686    -0.22700
C469        C  0.70701353  0.87254994  0.47733463    -0.05700
H470        H  0.61738957  0.88597598  0.49279891     0.15000
C471        C  0.58005555  0.04749857  0.47373004    -0.15900
H472        H  0.66341094  0.02920528  0.45623345     0.09300
H473        H  0.86924065  0.99828333  0.46645190     0.07200
H474        H  0.84779586  0.05276864  0.45524512     0.08400
H475        H  0.89049259  0.01027194  0.44520667     0.07400
H476        H  0.64994269  0.93245698  0.43030657     0.02300
H477        H  0.67034278  0.87503049  0.43985550     0.02800
H478        H  0.68633918  0.88913850  0.41808605     0.06300
H479        H  0.69224098  0.84478760  0.48653061     0.05300
H480        H  0.74367374  0.88560585  0.48214366    -0.00500
H481        H  0.71254813  0.85385164  0.46484195     0.01000
H482        H  0.60444524  0.07879520  0.47760702     0.04600
H483        H  0.54777716  0.04727097  0.48258380     0.06600
H484        H  0.56619834  0.05434218  0.46054682     0.07400
C485        C  0.22805970  0.98912840  0.54358986    -0.22200
C486        C  0.26881498  0.95942433  0.54814536     0.09800
C487        C  0.26672192  0.93087748  0.56325768     0.10200
C488        C  0.22357863  0.93223028  0.57338506    -0.17100
C489        C  0.18301696  0.96269072  0.56910488    -0.27500
C490        C  0.18497973  0.99102470  0.55383548     0.18500
C491        C  0.31451009  0.96068782  0.53749175     0.12500
C492        C  0.31084198  0.90074719  0.56913592    -0.11900
H493        H  0.22239907  0.91087394  0.58513540     0.12800
C494        C  0.14223743  0.02257599  0.54768482    -0.22700
H495        H  0.22994203  0.01104260  0.53196564     0.08400
C496        C  0.32556285  0.92296329  0.52558425     0.04700
C497        C  0.37162327  0.92359974  0.51705963    -0.19900
C498        C  0.40584184  0.96238944  0.51949966    -0.12200
C499        C  0.39337445  0.00160009  0.53080552     0.13500
C500        C  0.34819778  0.99973688  0.53984100    -0.22700
C501        C  0.28844953  0.88266326  0.52162087    -0.05700
H502        H  0.38104648  0.89357202  0.50844524     0.15000
C503        C  0.42597348  0.04647980  0.53343528    -0.15900
H504        H  0.33909069  0.02907238  0.54880261     0.09300
H505        H  0.13173371  0.01118223  0.53450356     0.07200
H506        H  0.15381279  0.06206830  0.54745762     0.08400
H507        H  0.10843001  0.01902174  0.55572210     0.07400
H508        H  0.34346061  0.92544303  0.57105993     0.02300
H509        H  0.32046090  0.87226178  0.55946380     0.02800
H510        H  0.30317877  0.88146574  0.58142593     0.06300
H511        H  0.30287085  0.85659142  0.51178830     0.05300
H512        H  0.25360715  0.89949193  0.51662995    -0.00500
H513        H  0.27962678  0.86106644  0.53330692     0.01000
H514        H  0.40438235  0.08042806  0.53035706     0.04600
H515        H  0.45958218  0.04669577  0.52520911     0.06600
H516        H  0.43802380  0.04829323  0.54702236     0.07400
C517        C  0.64303373  0.91157654  0.54325619    -0.22200
C518        C  0.67658683  0.95122777  0.54278820     0.09800
C519        C  0.66834538  0.99120657  0.53153188     0.10200
C520        C  0.62511115  0.99173144  0.52148952    -0.17100
C521        C  0.59087925  0.95243985  0.52212378    -0.27500
C522        C  0.60049782  0.91128332  0.53287330     0.18500
C523        C  0.71896667  0.95131309  0.55477986     0.12500
C524        C  0.70519350  0.03315304  0.53015064    -0.11900
H525        H  0.61779199  0.02300604  0.51315612     0.12800
C526        C  0.56742601  0.86613578  0.53351880    -0.22700
H527        H  0.65006607  0.88072178  0.55181515     0.08400
C528        C  0.71545516  0.97552284  0.57072743     0.04700
C529        C  0.75721550  0.97688837  0.58144947    -0.19900
C530        C  0.80173446  0.95334642  0.57675962    -0.12200
C531        C  0.80493417  0.92813271  0.56091048     0.13500
C532        C  0.76328394  0.92751522  0.55007092    -0.22700
C533        C  0.66739600  0.99913499  0.57651101    -0.05700
H534        H  0.75481084  0.99549585  0.59373011     0.15000
C535        C  0.85183867  0.90297235  0.55477052    -0.15900
H536        H  0.76553211  0.90890737  0.53778397     0.09300
H537        H  0.55160952  0.86212246  0.54659076     0.07200
H538        H  0.58983747  0.83268965  0.53048434     0.08400
H539        H  0.53628894  0.86741283  0.52422815     0.07400
H540        H  0.74200385  0.01844837  0.52609032     0.02300
H541        H  0.70929522  0.05188489  0.54271944    -0.04000
H542        H  0.69317596  0.06122964  0.52061201     0.06300
H543        H  0.67098976  0.01600895  0.58942465     0.05300
H544        H  0.63755090  0.97066584  0.57707540    -0.00500
H545        H  0.65618844  0.02865917  0.56741389     0.01000
H546        H  0.84466346  0.86276479  0.55306138     0.04600
H547        H  0.88365268  0.90740326  0.56366782     0.06600
H548        H  0.86320593  0.91900618  0.54226567     0.07400
C549        C  0.95904343  0.24637048  0.56701738    -0.22200
C550        C  0.98258537  0.24401718  0.55102588     0.09800
C551        C  0.00702965  0.19998576  0.54605556     0.10200
C552        C  0.00684037  0.15893505  0.55718973    -0.17100
C553        C  0.98231911  0.16089000  0.57307791    -0.27500
C554        C  0.95869593  0.20548644  0.57814583     0.18500
C555        C  0.98234729  0.28885062  0.53999656     0.12500
C556        C  0.03295693  0.19639846  0.52897910    -0.11900
H557        H  0.02561654  0.12506537  0.55344487     0.12800
C558        C  0.93497095  0.21112955  0.59554381    -0.22700
H559        H  0.94116793  0.28064577  0.57084510     0.08400
C560        C  0.94048704  0.30175438  0.52998346     0.04700
C561        C  0.94140390  0.34567632  0.52030270    -0.19900
C562        C  0.98320752  0.37693883  0.52048600    -0.12200
C563        C  0.02537824  0.36357991  0.53035608     0.13500
C564        C  0.02425874  0.31982323  0.54004027    -0.22700
C565        C  0.89505191  0.26904214  0.52949408    -0.05700
H566        H  0.90935163  0.35587211  0.51262683     0.15000
C567        C  0.07250841  0.39403621  0.53072328    -0.15900
H568        H  0.05637610  0.30975232  0.54771372     0.09300
H569        H  0.90208152  0.18651690  0.59664966     0.07200
H570        H  0.92190951  0.24962370  0.59780051     0.08400
H571        H  0.96243569  0.20188929  0.60569020     0.07400
H572        H  0.06323760  0.22435623  0.52823153     0.02300
H573        H  0.00581948  0.20330004  0.51851185     0.02800
H574        H  0.04970621  0.15923016  0.52696716     0.06300
H575        H  0.86586697  0.28421328  0.52088219     0.05300
H576        H  0.87891262  0.26569887  0.54253783    -0.00500
H577        H  0.90553325  0.23167186  0.52476947     0.01000
H578        H  0.07977015  0.40676113  0.54401039     0.04600
H579        H  0.07101070  0.42703986  0.52230789     0.06600
H580        H  0.10431513  0.37088961  0.52638509     0.07400
C581        C  0.94982501  0.64311755  0.52733461    -0.22200
C582        C  0.98669466  0.64809789  0.53993455     0.09800
C583        C  0.01970519  0.60850467  0.54310667     0.10200
C584        C  0.01644960  0.56560017  0.53309469    -0.17100
C585        C  0.98010827  0.56053867  0.52026078    -0.27500
C586        C  0.94523104  0.59932804  0.51773630     0.18500
C587        C  0.98647616  0.69241749  0.55109963     0.12500
C588        C  0.05730848  0.61074828  0.55743122    -0.11900
H589        H  0.04262441  0.53565328  0.53525900     0.12800
C590        C  0.90131401  0.59501297  0.50582274    -0.22700
H591        H  0.92328631  0.67290927  0.52543546     0.08400
C592        C  0.02084833  0.73148622  0.54899124     0.04700
C593        C  0.02244902  0.76962064  0.56124917    -0.19900
C594        C  0.98929294  0.77037920  0.57520678    -0.12200
C595        C  0.95313910  0.73224506  0.57672897     0.13500
C596        C  0.95257809  0.69364216  0.56470832    -0.22700
C597        C  0.05505766  0.73332024  0.53368373    -0.05700
H598        H  0.04944996  0.79921567  0.55984174     0.15000
C599        C  0.91621237  0.73053679  0.59128153    -0.15900
H600        H  0.92614595  0.66350980  0.56610012     0.09300
H601        H  0.90410920  0.62364696  0.49565298     0.07200
H602        H  0.86633124  0.60116348  0.51312683     0.08400
H603        H  0.89844931  0.55801607  0.49977012     0.07400
H604        H  0.03779162  0.61620552  0.56983011     0.02300
H605        H  0.08362519  0.64182588  0.55536502     0.02800
H606        H  0.07943818  0.57607479  0.55832400     0.06300
H607        H  0.07917951  0.76676524  0.53389680     0.05300
H608        H  0.03251861  0.73423048  0.52176386    -0.00500
H609        H  0.07953641  0.70026475  0.53337008     0.01000
H610        H  0.89260627  0.69674909  0.59078415     0.04600
H611        H  0.89089217  0.76297195  0.59058150     0.06600
H612        H  0.93625928  0.73040843  0.60371810     0.07400
C613        C  0.12056336  0.49906559  0.20009632    -0.22200
C614        C  0.16874310  0.49644917  0.20708553     0.09800
C615        C  0.17450512  0.48663248  0.22473518     0.10200
C616        C  0.13208798  0.47928413  0.23492469    -0.17100
C617        C  0.08390323  0.48099454  0.22793048    -0.27500
C618        C  0.07801622  0.49077261  0.21026371     0.18500
C619        C  0.21279444  0.50061427  0.19558032     0.12500
C620        C  0.22540207  0.48219730  0.23275192    -0.11900
H621        H  0.13650240  0.47160763  0.24847132     0.12800
C622        C  0.02748186  0.48949087  0.20187871    -0.22700
H623        H  0.11638337  0.50627114  0.18651752     0.08400
C624        C  0.22531338  0.46222411  0.18409196     0.04700
C625        C  0.26880957  0.46616994  0.17420045    -0.19900
C626        C  0.30043218  0.50761579  0.17540324    -0.12200
C627        C  0.28772771  0.54620050  0.18692634     0.13500
C628        C  0.24396292  0.54222882  0.19680045    -0.22700
C629        C  0.19334938  0.41650514  0.18246740    -0.05700
H630        H  0.27766268  0.43667168  0.16531988     0.15000
C631        C  0.32068940  0.59089380  0.18931794    -0.15900
H632        H  0.23417977  0.57151684  0.20568355     0.09300
H633        H  0.03015849  0.49477815  0.18780141     0.07200
H634        H  0.00350694  0.51940699  0.20701082     0.08400
H635        H  0.00961466  0.45303844  0.20425928     0.07400
H636        H  0.24565312  0.51788660  0.23166040     0.02300
H637        H  0.24700859  0.45269691  0.22618480     0.02800
H638        H  0.22305962  0.47258354  0.24656155     0.06300
H639        H  0.20956402  0.38933112  0.17335145     0.05300
H640        H  0.15578348  0.42665600  0.17768854    -0.00500
H641        H  0.18976882  0.39815511  0.19513419     0.01000
H642        H  0.32219085  0.61286150  0.17732444     0.04600
H643        H  0.35884986  0.57890345  0.19293540     0.06600
H644        H  0.30654118  0.61566611  0.19958741     0.07400
C645        C  0.79145099  0.53174639  0.17825515    -0.22200
C646        C  0.78733491  0.50268534  0.19304759     0.09800
C647        C  0.74150136  0.47955637  0.19695999     0.10200
C648        C  0.70114573  0.48486295  0.18567018    -0.17100
C649        C  0.70514254  0.51386261  0.17083845    -0.27500
C650        C  0.75104702  0.53746473  0.16699763     0.18500
C651        C  0.83144298  0.49691261  0.20429971     0.12500
C652        C  0.73482378  0.45028013  0.21323627    -0.11900
H653        H  0.66595223  0.46697040  0.18857662     0.12800
C654        C  0.75975816  0.56721405  0.15091804    -0.22700
H655        H  0.82675625  0.54939904  0.17532454     0.08400
C656        C  0.86229197  0.45473013  0.20332991     0.04700
C657        C  0.90118747  0.44908936  0.21517825    -0.19900
C658        C  0.91072581  0.48507994  0.22777823    -0.12200
C659        C  0.88087687  0.52838824  0.22824274     0.13500
C660        C  0.84177456  0.53374544  0.21642279    -0.22700
C661        C  0.85451138  0.41599196  0.18968775    -0.05700
H662        H  0.92432352  0.41620454  0.21465877     0.15000
C663        C  0.88718883  0.56865979  0.24138199    -0.15900
H664        H  0.81816296  0.56630582  0.21698912     0.09300
H665        H  0.79206163  0.55161544  0.14383943     0.07200
H666        H  0.76820783  0.60621938  0.15438039     0.08400
H667        H  0.72774069  0.56690580  0.14201065     0.07400
H668        H  0.74208298  0.47451180  0.22445055     0.02300
H669        H  0.76108129  0.41858916  0.21354521     0.02800
H670        H  0.69638168  0.43535869  0.21442269     0.06300
H671        H  0.88235756  0.38567769  0.19064857     0.05300
H672        H  0.85819034  0.43326577  0.17684488    -0.00500
H673        H  0.81686849  0.39936248  0.19086369     0.01000
H674        H  0.89730821  0.60385718  0.23489248     0.04600
H675        H  0.91601624  0.56009623  0.25094719     0.06600
H676        H  0.85162917  0.57400468  0.24842912     0.07400
C677        C  0.52840393  0.16841679  0.03952661    -0.22200
C678        C  0.48811617  0.20134006  0.03882730     0.09800
C679        C  0.44749369  0.19101386  0.02791749     0.10200
C680        C  0.44653872  0.14613414  0.01884591    -0.17100
C681        C  0.48638070  0.11250162  0.01980975    -0.27500
C682        C  0.52862456  0.12464462  0.02985149     0.18500
C683        C  0.48906869  0.24601158  0.04984730     0.12500
C684        C  0.40589867  0.22785702  0.02551300    -0.11900
H685        H  0.41479076  0.13738088  0.01081201     0.12800
C686        C  0.57520737  0.09342438  0.03020598    -0.22700
H687        H  0.56015355  0.17722223  0.04756205     0.08400
C688        C  0.46323101  0.24726550  0.06558345     0.04700
C689        C  0.46507624  0.29031017  0.07564277    -0.19900
C690        C  0.49358222  0.33151569  0.07064326    -0.12200
C691        C  0.51985815  0.33000285  0.05490763     0.13500
C692        C  0.51731582  0.28712711  0.04473286    -0.22700
C693        C  0.43542145  0.20249178  0.07208960    -0.05700
H694        H  0.44554138  0.29113562  0.08779812     0.15000
C695        C  0.54969128  0.37313965  0.04817466    -0.15900
H696        H  0.53730284  0.28582677  0.03266280     0.09300
H697        H  0.58139180  0.07910362  0.04336026     0.07200
H698        H  0.60766524  0.11651074  0.02641592     0.08400
H699        H  0.57387596  0.06168952  0.02125104     0.07400
H700        H  0.42138528  0.26310811  0.02046901     0.02300
H701        H  0.38691524  0.23530406  0.03785730     0.02800
H702        H  0.37753960  0.21420905  0.01628742     0.06300
H703        H  0.41813732  0.20948924  0.08478949     0.05300
H704        H  0.46159027  0.17086914  0.07342822    -0.00500
H705        H  0.40533963  0.19201571  0.06306392     0.01000
H706        H  0.58954166  0.36242065  0.04716307     0.04600
H707        H  0.54689519  0.40660575  0.05630879     0.06600
H708        H  0.53586567  0.38341013  0.03525046     0.07400
C709        C  0.47917387  0.80913715  0.07040289    -0.22200
C710        C  0.48896162  0.80065128  0.05301327     0.09800
C711        C  0.50077225  0.75231194  0.04743008     0.10200
C712        C  0.50170978  0.71329400  0.05938581    -0.17100
C713        C  0.49105145  0.72166275  0.07674705    -0.27500
C714        C  0.48024308  0.77033079  0.08237080     0.18500
C715        C  0.48718217  0.84329392  0.04100154     0.12500
C716        C  0.51213151  0.74203120  0.02887507    -0.11900
H717        H  0.51028725  0.67601144  0.05515025     0.12800
C718        C  0.47058319  0.78292839  0.10089016    -0.22700
H719        H  0.47076494  0.84643608  0.07467691     0.08400
C720        C  0.44217414  0.85852674  0.03325179     0.04700
C721        C  0.44189527  0.90068847  0.02265757    -0.19900
C722        C  0.48547509  0.92835159  0.01990018    -0.12200
C723        C  0.53066962  0.91267327  0.02755090     0.13500
C724        C  0.53090976  0.87028832  0.03796696    -0.22700
C725        C  0.39438009  0.83076732  0.03645456    -0.05700
H726        H  0.40733614  0.91289099  0.01684005     0.15000
C727        C  0.57933868  0.93956709  0.02493642    -0.15900
H728        H  0.56540847  0.85848845  0.04393653     0.09300
H729        H  0.43260330  0.79880338  0.10221876     0.07200
H730        H  0.49824126  0.81083811  0.10524202     0.08400
H731        H  0.47347699  0.75053446  0.10953857     0.07400
H732        H  0.54499838  0.76407159  0.02478597     0.02300
H733        H  0.47963251  0.75230389  0.02083041     0.02800
H734        H  0.52050946  0.70225629  0.02664487     0.06300
H735        H  0.36254524  0.84756941  0.02946797     0.05300
H736        H  0.38554410  0.83124749  0.05034910    -0.00500
H737        H  0.39837965  0.79179225  0.03214190     0.01000
H738        H  0.59311683  0.95365766  0.03742532     0.04600
H739        H  0.57624041  0.97123433  0.01598504     0.06600
H740        H  0.60732379  0.91357958  0.01953975     0.07400
C741        C  0.44730814  0.17178990  0.96139733    -0.22200
C742        C  0.49010565  0.20141086  0.96264346     0.09800
C743        C  0.52801600  0.18820343  0.97431219     0.10200
C744        C  0.52425475  0.14337209  0.98332829    -0.17100
C745        C  0.48195665  0.11296806  0.98183740    -0.27500
C746        C  0.44217832  0.12835016  0.97115688     0.18500
C747        C  0.49462783  0.24578327  0.95149785     0.12500
C748        C  0.57144922  0.22221515  0.97774939    -0.11900
H749        H  0.55424359  0.13221888  0.99178310     0.12800
C750        C  0.39330906  0.10092492  0.97015405    -0.22700
H751        H  0.41749314  0.18289801  0.95284870     0.08400
C752        C  0.52518118  0.24543994  0.93675931     0.04700
C753        C  0.52914320  0.28851080  0.92675403    -0.19900
C754        C  0.50144546  0.33118763  0.93063983    -0.12200
C755        C  0.46979895  0.33106063  0.94517277     0.13500
C756        C  0.46703405  0.28838899  0.95546145    -0.22700
C757        C  0.55154192  0.19890826  0.93107032    -0.05700
H758        H  0.55241688  0.28816926  0.91540010     0.15000
C759        C  0.43926515  0.37540139  0.95044667    -0.15900
H760        H  0.44317902  0.28834191  0.96667987     0.09300
H761        H  0.38736065  0.08734611  0.95689199     0.07200
H762        H  0.36244536  0.12647294  0.97360497     0.08400
H763        H  0.39122421  0.06897867  0.97902272     0.07400
H764        H  0.55737921  0.25826890  0.98259339     0.02300
H765        H  0.59324142  0.22878998  0.96591375     0.02800
H766        H  0.59704968  0.20658481  0.98753213     0.06300
H767        H  0.57277777  0.20480555  0.91902638     0.05300
H768        H  0.52370686  0.16921267  0.92875063    -0.00500
H769        H  0.57813195  0.18616377  0.94098008     0.01000
H770        H  0.39904201  0.36575521  0.95002820     0.04600
H771        H  0.44542608  0.40820531  0.94219753     0.06600
H772        H  0.44919691  0.38617860  0.96373927     0.07400
C773        C  0.44489747  0.87203534  0.96053944    -0.22200
C774        C  0.48750206  0.84202006  0.96137481     0.09800
C775        C  0.52624440  0.85449578  0.97281760     0.10200
C776        C  0.52241560  0.89792443  0.98259635    -0.17100
C777        C  0.48008613  0.92835334  0.98165059    -0.27500
C778        C  0.44032146  0.91464062  0.97073949     0.18500
C779        C  0.49145068  0.79890779  0.94964717     0.12500
C780        C  0.57126005  0.82170397  0.97491474    -0.11900
H781        H  0.55295958  0.90855122  0.99086520     0.12800
C782        C  0.39266089  0.94413681  0.97006381    -0.22700
H783        H  0.41522947  0.86219977  0.95175099     0.08400
C784        C  0.46088309  0.75667848  0.95153253     0.04700
C785        C  0.46424308  0.71822556  0.93947878    -0.19900
C786        C  0.49819266  0.72047547  0.92581155    -0.12200
C787        C  0.52952032  0.76239857  0.92412224     0.13500
C788        C  0.52538406  0.80125870  0.93599723    -0.22700
C789        C  0.42533470  0.75176908  0.96638495    -0.05700
H790        H  0.44038227  0.68602484  0.94078162     0.15000
C791        C  0.56582025  0.76748641  0.90948475    -0.15900
H792        H  0.54832557  0.83405972  0.93453116     0.09300
H793        H  0.37645712  0.94703878  0.98311448     0.07200
H794        H  0.39985107  0.98175988  0.96496276     0.08400
H795        H  0.36452971  0.92636842  0.96162551     0.07400
H796        H  0.59225729  0.81942126  0.96270186     0.02300
H797        H  0.55918920  0.78398164  0.97879277     0.02800
H798        H  0.59698557  0.83605321  0.98489680     0.06300
H799        H  0.40558582  0.71559494  0.96622008     0.05300
H800        H  0.39679861  0.78144444  0.96587329    -0.00500
H801        H  0.44624093  0.75459486  0.97861854     0.01000
H802        H  0.54568694  0.76469835  0.89709863     0.04600
H803        H  0.59451596  0.73798448  0.91026692     0.06600
H804        H  0.58546757  0.80370868  0.90976506     0.07400
C805        C  0.96358795  0.32528045  0.70708495    -0.22200
C806        C  0.99968082  0.28846576  0.70903699     0.09800
C807        C  0.03495050  0.29261851  0.72226833     0.10200
C808        C  0.03453501  0.33458978  0.73288281    -0.17100
C809        C  0.99976781  0.37348366  0.73064695    -0.27500
C810        C  0.96201838  0.36679131  0.71790484     0.18500
C811        C  0.99982782  0.24574573  0.69708528     0.12500
C812        C  0.07279737  0.25228556  0.72533070    -0.11900
H813        H  0.06151947  0.33551625  0.74304159     0.12800
C814        C  0.91880999  0.40166092  0.71507093    -0.22700
H815        H  0.93589728  0.32131438  0.69705396     0.08400
C816        C  0.96387370  0.20774181  0.69816842     0.04700
C817        C  0.96570750  0.16824495  0.68649363    -0.19900
C818        C  0.00279291  0.16561860  0.67378999    -0.12200
C819        C  0.03907380  0.20373787  0.67283055     0.13500
C820        C  0.03686350  0.24337912  0.68445646    -0.22700
C821        C  0.92397581  0.20852339  0.71175807    -0.05700
H822        H  0.93802398  0.13910087  0.68736154     0.15000
C823        C  0.07928473  0.20404691  0.65934158    -0.15900
H824        H  0.06411744  0.27296427  0.68368672     0.09300
H825        H  0.88331093  0.38060403  0.71588399     0.07200
H826        H  0.92170260  0.41840314  0.70211717     0.08400
H827        H  0.91602593  0.43172756  0.72453049     0.07400
H828        H  0.09721818  0.24819521  0.71394416     0.02300
H829        H  0.05336469  0.21666695  0.72779993     0.02800
H830        H  0.09695585  0.26051077  0.73652065     0.06300
H831        H  0.89966931  0.17525857  0.71106246     0.05300
H832        H  0.90003229  0.24169669  0.71013396    -0.00500
H833        H  0.94148899  0.20948059  0.72463487     0.01000
H834        H  0.06219069  0.20311686  0.64639599     0.04600
H835        H  0.10415035  0.17158639  0.66107101     0.06600
H836        H  0.10283528  0.23781999  0.66013452     0.07400
C837        C  0.96566361  0.62060162  0.71148836    -0.22200
C838        C  0.00875043  0.64991863  0.71211372     0.09800
C839        C  0.04783914  0.63653672  0.72329750     0.10200
C840        C  0.04490338  0.59154434  0.73229756    -0.17100
C841        C  0.00298762  0.56075547  0.73099605    -0.27500
C842        C  0.96206813  0.57646294  0.72095064     0.18500
C843        C  0.01232123  0.69370124  0.70064078     0.12500
C844        C  0.09193875  0.67021583  0.72605840    -0.11900
H845        H  0.07613512  0.57986519  0.74004589     0.12800
C846        C  0.91455295  0.54691639  0.72020765    -0.22700
H847        H  0.93510974  0.63186431  0.70328109     0.08400
C848        C  0.04052556  0.69228710  0.68535012     0.04700
C849        C  0.04215406  0.73439063  0.67475586    -0.19900
C850        C  0.01433906  0.77701497  0.67864724    -0.12200
C851        C  0.98532281  0.77796109  0.69380968     0.13500
C852        C  0.98486482  0.73633699  0.70462107    -0.22700
C853        C  0.06653092  0.64550908  0.67969750    -0.05700
H854        H  0.06343923  0.73319798  0.66295732     0.15000
C855        C  0.95512678  0.82240277  0.69920853    -0.15900
H856        H  0.96270335  0.73705500  0.71623773     0.09300
H857        H  0.92163992  0.51108588  0.71379442     0.07200
H858        H  0.88514990  0.56643752  0.71281783     0.08400
H859        H  0.90023363  0.54042756  0.73336887     0.07400
H860        H  0.07878324  0.70644923  0.73103862     0.02300
H861        H  0.11231438  0.67648751  0.71391148     0.02800
H862        H  0.11858509  0.65445695  0.73548574     0.06300
H863        H  0.08565826  0.65044414  0.66719375     0.05300
H864        H  0.03878281  0.61525991  0.67827693    -0.00500
H865        H  0.09489754  0.63408452  0.68920881     0.01000
H866        H  0.91499805  0.81235480  0.69957170     0.04600
H867        H  0.95977235  0.85469274  0.69061453     0.06600
H868        H  0.96688119  0.83425831  0.71221092     0.07400
C869        C  0.14239308  0.45650762  0.79917463    -0.22200
C870        C  0.17146365  0.49899605  0.79676265     0.09800
C871        C  0.15792382  0.53365158  0.78408492     0.10200
C872        C  0.11556802  0.52470328  0.77400413    -0.17100
C873        C  0.08758460  0.48116398  0.77581518    -0.27500
C874        C  0.10054782  0.44707054  0.78892280     0.18500
C875        C  0.21731725  0.50488787  0.80709877     0.12500
C876        C  0.18932044  0.57890605  0.78071496    -0.11900
H877        H  0.10566704  0.55092068  0.76411887     0.12800
C878        C  0.07107085  0.40072782  0.79269413    -0.22700
H879        H  0.15282207  0.43016767  0.80903618     0.08400
C880        C  0.21769678  0.53238654  0.82245676     0.04700
C881        C  0.26199332  0.53561091  0.83195997    -0.19900
C882        C  0.30536493  0.51080044  0.82668617    -0.12200
C883        C  0.30490892  0.48329599  0.81126672     0.13500
C884        C  0.26080559  0.48078495  0.80165949    -0.22700
C885        C  0.17105790  0.55688472  0.82908467    -0.05700
H886        H  0.26229752  0.55612593  0.84389633     0.15000
C887        C  0.35026878  0.45703552  0.80436642    -0.15900
H888        H  0.26022787  0.45965387  0.78984733     0.09300
H889        H  0.05951973  0.40081543  0.80635724     0.07200
H890        H  0.09468755  0.36766898  0.79030977     0.08400
H891        H  0.03667372  0.39739874  0.78495983     0.07400
H892        H  0.22765682  0.56747292  0.77709696     0.02300
H893        H  0.19113962  0.60239888  0.79234206     0.02800
H894        H  0.17387014  0.60169416  0.77012461     0.06300
H895        H  0.17775339  0.57626475  0.84142120     0.05300
H896        H  0.14171843  0.52851357  0.83119276    -0.00500
H897        H  0.15730182  0.58453376  0.81971488     0.01000
H898        H  0.34270309  0.41666155  0.80356246     0.04600
H899        H  0.38396403  0.46266358  0.81232080     0.06600
H900        H  0.35879859  0.47115794  0.79133020     0.07400
C901        C  0.75520109  0.54582340  0.80421153    -0.22200
C902        C  0.78630092  0.50460948  0.80620727     0.09800
C903        C  0.77440314  0.46835355  0.81853811     0.10200
C904        C  0.73206441  0.47468404  0.82884920    -0.17100
C905        C  0.70089324  0.51628596  0.82711362    -0.27500
C906        C  0.71234055  0.55204073  0.81434228     0.18500
C907        C  0.83003478  0.49904509  0.79474913     0.12500
C908        C  0.80573664  0.42240101  0.82055921    -0.11900
H909        H  0.72346941  0.44685487  0.83840848     0.12800
C910        C  0.67926233  0.59585841  0.81067013    -0.22700
H911        H  0.76445954  0.57314696  0.79453974     0.08400
C912        C  0.82427762  0.48475905  0.77750351     0.04700
C913        C  0.86671537  0.47782163  0.76730858    -0.19900
C914        C  0.91501523  0.48393073  0.77397233    -0.12200
C915        C  0.92069785  0.49842937  0.79131989     0.13500
C916        C  0.87798675  0.50632748  0.80140843    -0.22700
C917        C  0.77342108  0.47518806  0.77000998    -0.05700
H918        H  0.86218798  0.46659175  0.75406799     0.15000
C919        C  0.97107898  0.50264099  0.79969722    -0.15900
H920        H  0.88191461  0.51707609  0.81472039     0.09300
H921        H  0.68970625  0.61434667  0.79847168     0.07200
H922        H  0.68336722  0.62397590  0.82088825     0.08400
H923        H  0.63983736  0.58381748  0.80947468     0.07400
H924        H  0.84416182  0.43263689  0.82443799     0.02300
H925        H  0.80708970  0.40193558  0.80823009     0.02800
H926        H  0.79034888  0.39713195  0.83046799     0.06300
H927        H  0.77574019  0.46263564  0.75648688     0.05300
H928        H  0.75085171  0.50960502  0.77033299    -0.00500
H929        H  0.75418753  0.44591610  0.77751477     0.01000
H930        H  0.99257784  0.53370722  0.79414615     0.04600
H931        H  0.99175883  0.46749642  0.79807484     0.06600
H932        H  0.96786919  0.50987403  0.81365964     0.07400
C933        C  0.64527430  0.02391819  0.70563652    -0.22200
C934        C  0.67832563  0.98667796  0.71085990     0.09800
C935        C  0.66817676  0.95990951  0.72601769     0.10200
C936        C  0.62342271  0.96878865  0.73490345    -0.17100
C937        C  0.58998355  0.00563086  0.72955927    -0.27500
C938        C  0.60196043  0.03467278  0.71501140     0.18500
C939        C  0.72464515  0.97902551  0.70073772     0.12500
C940        C  0.70589176  0.92461533  0.73348367    -0.11900
H941        H  0.61585403  0.94882479  0.74664112     0.12800
C942        C  0.57092340  0.07800670  0.70918523    -0.22700
H943        H  0.65399843  0.04561245  0.69432969     0.08400
C944        C  0.72998812  0.93896891  0.68925454     0.04700
C945        C  0.77370480  0.93497443  0.67940550    -0.19900
C946        C  0.81128631  0.97126397  0.68012652    -0.12200
C947        C  0.80560261  0.01164721  0.69159379     0.13500
C948        C  0.76239477  0.01484964  0.70171796    -0.22700
C949        C  0.68832173  0.90230716  0.68649539    -0.05700
H950        H  0.77726162  0.90463368  0.67040317     0.15000
C951        C  0.84425391  0.05177222  0.69377737    -0.15900
H952        H  0.75786318  0.04592261  0.71038718     0.09300
H953        H  0.55914024  0.07225161  0.69569957     0.07200
H954        H  0.59355944  0.11239071  0.70987698     0.08400
H955        H  0.53706332  0.08356821  0.71704210     0.07400
H956        H  0.74101687  0.94487952  0.73621813     0.02300
H957        H  0.71404651  0.89403885  0.72447031     0.02800
H958        H  0.69245730  0.90795849  0.74565207     0.06300
H959        H  0.69817201  0.87425901  0.67665072     0.05300
H960        H  0.65442180  0.92214305  0.68209774    -0.00500
H961        H  0.67952569  0.88231532  0.69849732     0.01000
H962        H  0.82859801  0.08779415  0.68950343     0.04600
H963        H  0.87915524  0.04464131  0.68664780     0.06600
H964        H  0.85453875  0.05478577  0.70751135     0.07400
C965        C  0.37478614  0.98221533  0.70007698    -0.22200
C966        C  0.32674572  0.98742443  0.70687572     0.09800
C967        C  0.32086028  0.99848493  0.72439770     0.10200
C968        C  0.36331590  0.00544058  0.73463616    -0.17100
C969        C  0.41175883  0.00224427  0.72776283    -0.27500
C970        C  0.41741943  0.98970420  0.71022662     0.18500
C971        C  0.28335500  0.98499576  0.69510045     0.12500
C972        C  0.26978681  0.00451415  0.73214635    -0.11900
H973        H  0.35863101  0.01441426  0.74807315     0.12800
C974        C  0.46765641  0.98739661  0.70169986    -0.22700
H975        H  0.37881572  0.97385337  0.68656494     0.08400
C976        C  0.27129127  0.02532307  0.68440551     0.04700
C977        C  0.23025911  0.02177015  0.67335135    -0.19900
C978        C  0.20079677  0.97871868  0.67259941    -0.12200
C979        C  0.21272382  0.93837626  0.68352435     0.13500
C980        C  0.25388872  0.94214197  0.69463332    -0.22700
C981        C  0.30153928  0.07238445  0.68476298    -0.05700
H982        H  0.22181340  0.05277022  0.66505738     0.15000
C983        C  0.18191959  0.89167427  0.68388417    -0.15900
H984        H  0.26331725  0.91147435  0.70298483     0.09300
H985        H  0.46441200  0.98177269  0.68765220     0.07200
H986        H  0.48988884  0.95618186  0.70675969     0.08400
H987        H  0.48740632  0.02273692  0.70378264     0.07400
H988        H  0.24850914  0.96944785  0.73084885     0.02300
H989        H  0.24944187  0.03466882  0.72546687     0.02800
H990        H  0.27178230  0.01399834  0.74597142     0.06300
H991        H  0.28641134  0.10072454  0.67586209     0.05300
H992        H  0.34056502  0.06451661  0.68090682    -0.00500
H993        H  0.30125745  0.08818978  0.69789224     0.01000
H994        H  0.18462440  0.87226940  0.67139381     0.04600
H995        H  0.14238728  0.90084656  0.68667573     0.06600
H996        H  0.19500376  0.86552642  0.69390262     0.07400
C997        C  0.50547147  0.19716711  0.77760841    -0.22200
C998        C  0.49682694  0.19224641  0.79518927     0.09800
C999        C  0.48435134  0.14550507  0.80187453     0.10200
C1000       C  0.48280960  0.10433046  0.79093511    -0.17100
C1001       C  0.49475315  0.10774818  0.77329839    -0.27500
C1002       C  0.50324491  0.15617734  0.76650005     0.18500
C1003       C  0.49902491  0.23681928  0.80632297     0.12500
C1004       C  0.47308640  0.13885982  0.82066882    -0.11900
H1005       H  0.47064410  0.06997177  0.79650571     0.12800
C1006       C  0.50916466  0.16730924  0.74766835    -0.22700
H1007       H  0.51318354  0.23367137  0.77244018     0.08400
C1008       C  0.54474590  0.25684771  0.81187068     0.04700
C1009       C  0.54475564  0.29795686  0.82291893    -0.19900
C1010       C  0.50003442  0.31956784  0.82875249    -0.12200
C1011       C  0.45403591  0.29937762  0.82291102     0.13500
C1012       C  0.45437661  0.25851584  0.81175016    -0.22700
C1013       C  0.59352387  0.23417936  0.80638259    -0.05700
H1014       H  0.58018215  0.31266370  0.82713118     0.15000
C1015       C  0.40414730  0.32000379  0.82824704    -0.15900
H1016       H  0.41946072  0.24281373  0.80734535     0.09300
H1017       H  0.54729775  0.18163714  0.74519531     0.07200
H1018       H  0.48173282  0.19608818  0.74386837     0.08400
H1019       H  0.50246388  0.13526726  0.73923820     0.07400
H1020       H  0.43994544  0.16113931  0.82426880     0.02300
H1021       H  0.50556084  0.15105390  0.82840732     0.02800
H1022       H  0.46513582  0.09958431  0.82392092     0.06300
H1023       H  0.62591104  0.25383920  0.81206704     0.05300
H1024       H  0.59709334  0.23601029  0.79223373    -0.00500
H1025       H  0.59502532  0.19485513  0.81052315     0.01000
H1026       H  0.37273043  0.30014763  0.82202357     0.04600
H1027       H  0.40145511  0.35957468  0.82449826     0.06600
H1028       H  0.39920209  0.31595948  0.84229205     0.07400
C1029       C  0.46047278  0.86265878  0.79038773    -0.22200
C1030       C  0.49870207  0.82882606  0.78695476     0.09800
C1031       C  0.53205679  0.83808544  0.77333591     0.10200
C1032       C  0.52896615  0.88322371  0.76438443    -0.17100
C1033       C  0.49300058  0.91884896  0.76871864    -0.27500
C1034       C  0.45633381  0.90692667  0.78114109     0.18500
C1035       C  0.50346828  0.78488837  0.79823117     0.12500
C1036       C  0.57109285  0.80063068  0.76842994    -0.11900
H1037       H  0.55577893  0.89134600  0.75442818     0.12800
C1038       C  0.41174984  0.93939066  0.78471946    -0.22700
H1039       H  0.43375139  0.85452693  0.80042922     0.08400
C1040       C  0.53346226  0.78625191  0.81306842     0.04700
C1041       C  0.53335444  0.74559306  0.82429545    -0.19900
C1042       C  0.50332750  0.70390676  0.82117788    -0.12200
C1043       C  0.47480125  0.70185717  0.80592587     0.13500
C1044       C  0.47484074  0.74267083  0.79474983    -0.22700
C1045       C  0.56435575  0.83125625  0.81731076    -0.05700
H1046       H  0.55538072  0.74719276  0.83591640     0.15000
C1047       C  0.44506175  0.65694092  0.80073703    -0.15900
H1048       H  0.45217162  0.74167172  0.78326272     0.09300
H1049       H  0.41388302  0.95394329  0.79799708     0.07200
H1050       H  0.37713417  0.91716031  0.78336503     0.08400
H1051       H  0.40841248  0.97088858  0.77569764     0.07400
H1052       H  0.55274609  0.76536055  0.76471108     0.02300
H1053       H  0.59637508  0.79362051  0.77940225     0.02800
H1054       H  0.59397443  0.81356672  0.75744172     0.06300
H1055       H  0.58532915  0.82638271  0.82945491     0.05300
H1056       H  0.53978131  0.86409160  0.81872475    -0.00500
H1057       H  0.59168360  0.83834466  0.80692301     0.01000
H1058       H  0.40486414  0.66657521  0.80021312     0.04600
H1059       H  0.45000851  0.62513781  0.80952007     0.06600
H1060       H  0.45725677  0.64453564  0.78783433     0.07400
C1061       C  0.21453571  0.54883250  0.06985297    -0.22200
C1062       C  0.22179534  0.53779536  0.05252235     0.09800
C1063       C  0.26891841  0.52212046  0.04666061     0.10200
C1064       C  0.30817345  0.51784724  0.05842509    -0.17100
C1065       C  0.30091477  0.52897633  0.07578462    -0.27500
C1066       C  0.25338534  0.54398431  0.08166037     0.18500
C1067       C  0.17831281  0.53979059  0.04106153     0.12500
C1068       C  0.27746291  0.50973880  0.02807525    -0.11900
H1069       H  0.34468807  0.50607957  0.05407417     0.12800
C1070       C  0.24160989  0.55320854  0.10028688    -0.22700
H1071       H  0.17784974  0.55995335  0.07426088     0.08400
C1072       C  0.14588551  0.49894865  0.03965440     0.04700
C1073       C  0.10328583  0.50310075  0.02946354    -0.19900
C1074       C  0.09233139  0.54725008  0.02077401    -0.12200
C1075       C  0.12447324  0.58850869  0.02241137     0.13500
C1076       C  0.16759960  0.58399297  0.03241789    -0.22700
C1077       C  0.15602656  0.45125600  0.04906117    -0.05700
H1078       H  0.07825085  0.47175698  0.02823031     0.15000
C1079       C  0.11353874  0.63805832  0.01436440    -0.15900
H1080       H  0.19234745  0.61548552  0.03386020     0.09300
H1081       H  0.21061268  0.52853406  0.10432727     0.07200
H1082       H  0.22982116  0.59230095  0.10203234     0.08400
H1083       H  0.27342165  0.54582195  0.10894276     0.07400
H1084       H  0.26955371  0.54273140  0.02003494     0.02300
H1085       H  0.25242522  0.47904116  0.02413671     0.02800
H1086       H  0.31653017  0.49803535  0.02565976     0.06300
H1087       H  0.12689596  0.42298931  0.04647543     0.05300
H1088       H  0.15682611  0.45822868  0.06307149    -0.00500
H1089       H  0.19251470  0.43586946  0.04498451     0.01000
H1090       H  0.11214499  0.66692419  0.02448805     0.04600
H1091       H  0.07740015  0.63893085  0.00752375     0.06600
H1092       H  0.14352753  0.64754679  0.00512450     0.07400
C1093       C  0.78210221  0.55006917  0.06850835    -0.22200
C1094       C  0.77786303  0.53442040  0.05147952     0.09800
C1095       C  0.73187627  0.51637165  0.04534801     0.10200
C1096       C  0.69067744  0.51486386  0.05644422    -0.17100
C1097       C  0.69465687  0.53131035  0.07342585    -0.27500
C1098       C  0.74119038  0.54836095  0.07965538     0.18500
C1099       C  0.82240000  0.53683273  0.04036831     0.12500
C1100       C  0.72632283  0.49941578  0.02706526    -0.11900
H1101       H  0.65505431  0.50148563  0.05179779     0.12800
C1102       C  0.74968925  0.56367390  0.09801353    -0.22700
H1103       H  0.81779354  0.56327493  0.07317099     0.08400
C1104       C  0.83621731  0.58111770  0.03203720     0.04700
C1105       C  0.87930828  0.58185263  0.02186944    -0.19900
C1106       C  0.90903642  0.53947232  0.02009007    -0.12200
C1107       C  0.89506504  0.49501536  0.02841602     0.13500
C1108       C  0.85176322  0.49430344  0.03845651    -0.22700
C1109       C  0.80568642  0.62755842  0.03401340    -0.05700
H1110       H  0.89044323  0.61581819  0.01551831     0.15000
C1111       C  0.92458333  0.44769832  0.02687061    -0.15900
H1112       H  0.84089560  0.46040308  0.04491204     0.09300
H1113       H  0.76032491  0.60340310  0.09847708     0.07200
H1114       H  0.78047638  0.54130478  0.10353585     0.08400
H1115       H  0.71675827  0.55807706  0.10632997     0.07400
H1116       H  0.75205697  0.46806409  0.02452131     0.02300
H1117       H  0.73536927  0.53038760  0.01823295     0.02800
H1118       H  0.68774059  0.48683515  0.02429499     0.06300
H1119       H  0.82160944  0.65883054  0.02655547     0.05300
H1120       H  0.80451693  0.63864289  0.04770142    -0.00500
H1121       H  0.76712536  0.62083012  0.02941701     0.01000
H1122       H  0.93798121  0.43625187  0.03972822     0.04600
H1123       H  0.95731865  0.45114491  0.01829307     0.06600
H1124       H  0.90031465  0.41804475  0.02161356     0.07400
C1125       C  0.14862939  0.58376396  0.95981298    -0.22200
C1126       C  0.18272718  0.54527557  0.96255713     0.09800
C1127       C  0.17441513  0.51134037  0.97598337     0.10200
C1128       C  0.12969783  0.51371102  0.98524968    -0.17100
C1129       C  0.09481418  0.55171925  0.98241879    -0.27500
C1130       C  0.10551176  0.58834653  0.96990597     0.18500
C1131       C  0.22611235  0.54023816  0.95092001     0.12500
C1132       C  0.21319534  0.47341748  0.98080655    -0.11900
H1133       H  0.12188689  0.48546925  0.99471751     0.12800
C1134       C  0.07325341  0.63333810  0.96710504    -0.22700
H1135       H  0.15592789  0.61064923  0.94980057     0.08400
C1136       C  0.22640274  0.50463575  0.93767862     0.04700
C1137       C  0.26875518  0.49993599  0.92726498    -0.19900
C1138       C  0.31007653  0.53127470  0.92930879    -0.12200
C1139       C  0.30935464  0.56772167  0.94238064     0.13500
C1140       C  0.26728156  0.57163454  0.95303541    -0.22700
C1141       C  0.18125136  0.47302576  0.93405567    -0.05700
H1142       H  0.26884021  0.47278798  0.91703444     0.15000
C1143       C  0.35252308  0.60213156  0.94582175    -0.15900
H1144       H  0.26671602  0.59912900  0.96316140     0.09300
H1145       H  0.05694759  0.63214718  0.95404624     0.07200
H1146       H  0.09637718  0.66728059  0.96834202     0.08400
H1147       H  0.04270776  0.63662438  0.97656191     0.07400
H1148       H  0.24826541  0.49260041  0.98442889     0.02300
H1149       H  0.22090353  0.44817982  0.96993323     0.02800
H1150       H  0.20107556  0.45058717  0.99188982     0.06300
H1151       H  0.18746209  0.44795431  0.92297878     0.05300
H1152       H  0.14893653  0.49718603  0.93104593    -0.00500
H1153       H  0.17191562  0.44978640  0.94530625     0.01000
H1154       H  0.34059953  0.64105080  0.94372433     0.04600
H1155       H  0.38539288  0.59468005  0.93764445     0.06600
H1156       H  0.36468996  0.59795547  0.95933707     0.07400
C1157       C  0.84901600  0.58149277  0.96248343    -0.22200
C1158       C  0.82114451  0.53759128  0.96258941     0.09800
C1159       C  0.83654512  0.49748404  0.97286615     0.10200
C1160       C  0.88047930  0.50172595  0.98247915    -0.17100
C1161       C  0.90885916  0.54542597  0.98222180    -0.27500
C1162       C  0.89237132  0.58622895  0.97236061     0.18500
C1163       C  0.77734759  0.53380266  0.95116327     0.12500
C1164       C  0.80659764  0.45036159  0.97367694    -0.11900
H1165       H  0.89312159  0.47061176  0.99009087     0.12800
C1166       C  0.91891837  0.63544708  0.97217654    -0.22700
H1167       H  0.83678355  0.61230707  0.95462882     0.08400
C1168       C  0.73121923  0.55567727  0.95538369     0.04700
C1169       C  0.69184669  0.55348777  0.94355229    -0.19900
C1170       C  0.69761496  0.52953393  0.92772219    -0.12200
C1171       C  0.74404684  0.50762439  0.92352623     0.13500
C1172       C  0.78311971  0.50972790  0.93540838    -0.22700
C1173       C  0.72358654  0.58085849  0.97239787    -0.05700
H1174       H  0.65630686  0.57032380  0.94668833     0.15000
C1175       C  0.75492361  0.48385511  0.90643892    -0.15900
H1176       H  0.81891999  0.49354151  0.93218019     0.09300
H1177       H  0.89249938  0.66512585  0.97599546     0.07200
H1178       H  0.93281198  0.64327939  0.95905401     0.08400
H1179       H  0.95078707  0.63702057  0.98116081     0.07400
H1180       H  0.80451676  0.43324311  0.96077340     0.02300
H1181       H  0.76831281  0.45868611  0.97826030     0.02800
H1182       H  0.82350537  0.42300087  0.98256968     0.06300
H1183       H  0.68502834  0.59530753  0.97377111     0.05300
H1184       H  0.74978998  0.61246366  0.97367982    -0.00500
H1185       H  0.73045594  0.55407291  0.98293069     0.01000
H1186       H  0.78771458  0.50223839  0.90050955     0.04600
H1187       H  0.72393171  0.48685030  0.89717188     0.06600
H1188       H  0.76367380  0.44403867  0.90834961     0.07400
C1189       C  0.74801902  0.94610985  0.30627818    -0.22200
C1190       C  0.71732473  0.98811156  0.30683026     0.09800
C1191       C  0.72858134  0.02666413  0.31839150     0.10200
C1192       C  0.77025967  0.02237433  0.32913328    -0.17100
C1193       C  0.80121707  0.98034359  0.32873216    -0.27500
C1194       C  0.78979720  0.94163433  0.31708381     0.18500
C1195       C  0.67407111  0.99177293  0.29499746     0.12500
C1196       C  0.69698273  0.07276134  0.31924680    -0.11900
H1197       H  0.77816490  0.05204155  0.33805635     0.12800
C1198       C  0.82208298  0.89624028  0.31555652    -0.22700
H1199       H  0.73923455  0.91676519  0.29729204     0.08400
C1200       C  0.68044375  0.00424135  0.27758850     0.04700
C1201       C  0.63828216  0.01109338  0.26721144    -0.19900
C1202       C  0.58971870  0.00637128  0.27383484    -0.12200
C1203       C  0.58342571  0.99356640  0.29126824     0.13500
C1204       C  0.62574169  0.98586841  0.30157147    -0.22700
C1205       C  0.73165299  0.01197917  0.27011063    -0.05700
H1206       H  0.64318153  0.02108911  0.25386652     0.15000
C1207       C  0.53258392  0.99121153  0.29940155    -0.15900
H1208       H  0.62120207  0.97673724  0.31500041     0.09300
H1209       H  0.80923415  0.87132821  0.30512930     0.07200
H1210       H  0.82107880  0.87475394  0.32766240     0.08400
H1211       H  0.86094606  0.90752524  0.31264668     0.07400
H1212       H  0.65840084  0.06304072  0.32312210     0.02300
H1213       H  0.69619068  0.09101136  0.30650686     0.02800
H1214       H  0.71170583  0.09980705  0.32869846     0.06300
H1215       H  0.72991283  0.02273860  0.25639254     0.05300
H1216       H  0.75359657  0.97725314  0.27107436    -0.00500
H1217       H  0.75118695  0.04189257  0.27720204     0.01000
H1218       H  0.51038115  0.96078526  0.29373178     0.04600
H1219       H  0.51307131  0.02702015  0.29752055     0.06600
H1220       H  0.53494017  0.98420770  0.31339361     0.07400
C1221       C  0.34296612  0.95558482  0.28320884    -0.22200
C1222       C  0.33381078  0.98903001  0.29656494     0.09800
C1223       C  0.36664729  0.02917994  0.29909849     0.10200
C1224       C  0.40687206  0.03600205  0.28779977    -0.17100
C1225       C  0.41545692  0.00339743  0.27406032    -0.27500
C1226       C  0.38303759  0.96240896  0.27182249     0.18500
C1227       C  0.28821204  0.98289925  0.30719994     0.12500
C1228       C  0.35869482  0.06521670  0.31357305    -0.11900
H1229       H  0.43138764  0.06754256  0.28951521     0.12800
C1230       C  0.38745502  0.92661955  0.25713649    -0.22700
H1231       H  0.31754280  0.92485254  0.28128304     0.08400
C1232       C  0.24243821  0.00460132  0.30236301     0.04700
C1233       C  0.20070851  0.99977329  0.31315073    -0.19900
C1234       C  0.20349434  0.97316816  0.32855562    -0.12200
C1235       C  0.24951911  0.95138141  0.33339783     0.13500
C1236       C  0.29110386  0.95621677  0.32255301    -0.22700
C1237       C  0.23775716  0.03286453  0.28580968    -0.05700
H1238       H  0.16559051  0.01657677  0.30949354     0.15000
C1239       C  0.25710729  0.92461255  0.35015220    -0.15900
H1240       H  0.32642341  0.93996445  0.32628786     0.09300
H1241       H  0.35203934  0.92614559  0.24978209     0.07200
H1242       H  0.39486554  0.88884621  0.26214233     0.08400
H1243       H  0.41735073  0.93650538  0.24811635     0.07400
H1244       H  0.36010051  0.04523381  0.32599222     0.02300
H1245       H  0.32178438  0.08337693  0.31222768     0.02800
H1246       H  0.38773039  0.09455281  0.31375022     0.06300
H1247       H  0.19943364  0.04743556  0.28392949     0.05300
H1248       H  0.24669942  0.00811509  0.27487322    -0.00500
H1249       H  0.26396415  0.06469154  0.28579157     0.01000
H1250       H  0.26672336  0.88529630  0.34759788     0.04600
H1251       H  0.22418422  0.92568466  0.35866648     0.06600
H1252       H  0.28829071  0.94213637  0.35727622     0.07400
C1253       C  0.54223959  0.16762656  0.20820608    -0.22200
C1254       C  0.50558127  0.20382517  0.21021792     0.09800
C1255       C  0.46961265  0.19838506  0.22318340     0.10200
C1256       C  0.46969164  0.15546310  0.23337461    -0.17100
C1257       C  0.50492362  0.11703348  0.23094541    -0.27500
C1258       C  0.54338665  0.12509077  0.21853195     0.18500
C1259       C  0.50465604  0.24607477  0.19807997     0.12500
C1260       C  0.43129781  0.23820303  0.22633113    -0.11900
H1261       H  0.44205427  0.15327029  0.24331369     0.12800
C1262       C  0.58673226  0.09044361  0.21540934    -0.22700
H1263       H  0.57037769  0.17260739  0.19836904     0.08400
C1264       C  0.53815456  0.28617819  0.19948021     0.04700
C1265       C  0.53745482  0.32372961  0.18700913    -0.19900
C1266       C  0.50355847  0.32234880  0.17331976    -0.12200
C1267       C  0.46990922  0.28204029  0.17198352     0.13500
C1268       C  0.47100364  0.24444217  0.18439259    -0.22700
C1269       C  0.57423085  0.28947060  0.21420196    -0.05700
H1270       H  0.56316932  0.35457068  0.18803880     0.15000
C1271       C  0.43425699  0.27709068  0.15715843    -0.15900
H1272       H  0.44587753  0.21312414  0.18332530     0.09300
H1273       H  0.62219417  0.11117516  0.21700501     0.07200
H1274       H  0.58490745  0.07612648  0.20208963     0.08400
H1275       H  0.58870762  0.05839829  0.22412272     0.07400
H1276       H  0.40794972  0.24332420  0.21473685     0.02300
H1277       H  0.45033375  0.27364072  0.22940267     0.02800
H1278       H  0.40624283  0.22876818  0.23718129     0.06300
H1279       H  0.59722724  0.32364236  0.21353322     0.05300
H1280       H  0.59974863  0.25712747  0.21402213    -0.00500
H1281       H  0.55336241  0.28986073  0.22648796     0.01000
H1282       H  0.45520990  0.27802164  0.14488897     0.04600
H1283       H  0.40658873  0.30760297  0.15744652     0.06600
H1284       H  0.41324087  0.24165540  0.15765232     0.07400
C1285       C  0.47068406  0.75516070  0.20328192    -0.22200
C1286       C  0.50209739  0.79499212  0.19928945     0.09800
C1287       C  0.53515687  0.79106443  0.18529119     0.10200
C1288       C  0.53515331  0.74776945  0.17531006    -0.17100
C1289       C  0.50270725  0.70826184  0.17895228    -0.27500
C1290       C  0.47102598  0.71151633  0.19345770     0.18500
C1291       C  0.50014318  0.84054656  0.20993368     0.12500
C1292       C  0.56978275  0.83299020  0.18072081    -0.11900
H1293       H  0.55953846  0.74546698  0.16426535     0.12800
C1294       C  0.43840401  0.66934874  0.19935989    -0.22700
H1295       H  0.44603178  0.75799415  0.21424885     0.08400
C1296       C  0.46738453  0.87972058  0.20602029     0.04700
C1297       C  0.46930270  0.92348162  0.21573516    -0.19900
C1298       C  0.50371670  0.92954205  0.22920660    -0.12200
C1299       C  0.53651403  0.88978264  0.23307503     0.13500
C1300       C  0.53349002  0.84559470  0.22360245    -0.22700
C1301       C  0.43073813  0.87541242  0.19148482    -0.05700
H1302       H  0.44367865  0.95330000  0.21276246     0.15000
C1303       C  0.57732251  0.89302418  0.24622993    -0.15900
H1304       H  0.55891290  0.81545551  0.22643265     0.09300
H1305       H  0.39859652  0.68000323  0.19813431     0.07200
H1306       H  0.44645419  0.66107079  0.21301326     0.08400
H1307       H  0.44484535  0.63461453  0.19216308     0.07400
H1308       H  0.59513082  0.84077373  0.19162711     0.02300
H1309       H  0.54783558  0.86679194  0.17778390     0.02800
H1310       H  0.59299075  0.82404395  0.16934892     0.06300
H1311       H  0.40786450  0.90946130  0.19008958     0.05300
H1312       H  0.40520289  0.84376686  0.19384381    -0.00500
H1313       H  0.45098427  0.86920660  0.17926709     0.01000
H1314       H  0.56902488  0.86757496  0.25703251     0.04600
H1315       H  0.58262412  0.93074648  0.25118511     0.06600
H1316       H  0.61336673  0.88208935  0.24033577     0.07400
loop_ 
_geom_bond_atom_site_label_1 
_geom_bond_atom_site_label_2 
_geom_bond_distance 
_geom_bond_site_symmetry_2 
_ccdc_geom_bond_type 
C1            C2   1.549       .  S
C1            C7   1.538       .  S
C1            C5   1.533       .  S
C1         C1257   1.545       .  S
C2            H9   1.081       .  S
C2            C3   1.367       .  D
C3            C4   1.544   1_545  S
C3         C1225   1.492       .  S
C4            C8   1.547       .  S
C4            C6   1.547   1_565  S
C4           H10   1.109       .  S
C5           H11   1.087       .  S
C5            C6   1.364       .  D
C6         C1202   1.491       .  S
C7           H12   1.086       .  S
C7            C8   1.366   1_545  D
C8         C1298   1.499       .  S
C13          C14   1.409   1_554  A
C13          C18   1.396   1_655  A
C13        C1106   1.478       .  S
C14          C15   1.405   1_655  A
C14        C1161   1.482       .  S
C15          C16   1.407       .  A
C15          H20   1.084       .  S
C16          C17   1.416   1_556  A
C16        C1129   1.493       .  S
C17          C18   1.399       .  A
C17        C1074   1.476       .  S
C18          H19   1.085       .  S
C21          C22   1.538       .  S
C21          C27   1.547       .  S
C21          C25   1.539       .  S
C21        C1001   1.548       .  S
C22          H29   1.086       .  S
C22          C23   1.365       .  D
C23          C24   1.546   1_545  S
C23         C937   1.485       .  S
C24          C28   1.534       .  S
C24          C26   1.543   1_565  S
C24          H30   1.107       .  S
C25          H31   1.086       .  S
C25          C26   1.371       .  D
C26         C969   1.496       .  S
C27          H32   1.081       .  S
C27          C28   1.362   1_545  D
C28        C1033   1.487       .  S
C33          C34   1.548       .  S
C33          C39   1.538       .  S
C33          C37   1.536   1_455  S
C33         C809   1.546   1_455  S
C34          H41   1.081       .  S
C34          C35   1.366       .  D
C35          C36   1.541       .  S
C35         C873   1.487       .  S
C36          C40   1.541       .  S
C36          C38   1.542   1_455  S
C36          H42   1.107       .  S
C37          H43   1.087       .  S
C37          C38   1.368       .  D
C38         C914   1.490       .  S
C39          H44   1.086       .  S
C39          C40   1.363       .  D
C40         C841   1.488       .  S
C45          C46   1.415   1_554  A
C45          C50   1.404   1_565  A
C45         C722   1.487       .  S
C46          C47   1.407   1_565  A
C46         C777   1.487       .  S
C47          C48   1.405       .  A
C47          H52   1.084       .  S
C48          C49   1.414   1_556  A
C48         C745   1.490       .  S
C49          C50   1.405       .  A
C49         C681   1.486       .  S
C50          H51   1.084       .  S
C53          C90   1.458       .  S
C53        C1170   1.474       .  S
C53          N71   1.349       .  A
N54          N71   1.324       .  A
N54          N76   1.322       .  A
N54         Co91   2.087       .  S
C55          C93   1.464       .  S
C55         H100   1.082       .  S
C55          N80   1.343       .  A
H56          C97   1.082       .  S
C57          C61   1.462       .  S
C57          H86   1.082       .  S
C57          N81   1.341       .  A
Co58         N76   2.086       .  S
Co58         N66   2.084       .  S
Co58         N98   2.076       .  S
Co58         N74   2.087       .  S
Co58       Cl102   2.453       .  S
N59          C97   1.340       .  A
N59          N66   1.319       .  A
N59         Co60   2.082       .  S
Co60         N63   2.083       .  S
Co60         N80   2.093       .  S
Co60         N67   2.085       .  S
Co60       Cl102   2.452       .  S
C61        C1138   1.478       .  S
C61          N99   1.349       .  A
N62          N69   1.320       .  A
N62          N92   1.325       .  A
N62         Co95   2.087       .  S
N63          N81   1.320       .  A
N63          N99   1.324       .  A
N64          C93   1.350       .  A
N64          N74   1.325       .  A
H65          C90   1.082       .  S
N66          N87   1.325       .  A
N67          N85   1.320       .  A
N67          N72   1.325       .  A
C68          C96   1.459       .  S
C68         C882   1.474       .  S
C68          N72   1.350       .  A
N69          C84   1.342       .  A
N69         Co91   2.092       .  S
C70          C73   1.463       .  S
C70         H104   1.077       .  S
C70          N98   1.337       .  A
C73         C905   1.489       .  S
C73          N94   1.355       .  A
N74          N80   1.320       .  A
N75         C101   1.342       .  A
N75          N77   1.319       .  A
N75         Co91   2.088       .  S
N76          C90   1.341       .  A
N77         N105   1.323       .  A
N77         Co95   2.088       .  S
H78         C101   1.081       .  S
H79          C96   1.082       .  S
N81         Co95   2.090       .  S
N82          N94   1.325       .  A
N82          N98   1.318       .  A
N82         Co91   2.092       .  S
C83          C97   1.458       .  S
C83         C786   1.480       .  S
C83          N87   1.351       .  A
C84         C103   1.462       .  S
C84          H88   1.082       .  S
N85          C96   1.340       .  A
N85         Co95   2.083       .  S
C89         C101   1.470       .  S
C89        C1010   1.497       .  S
C89         N105   1.351       .  A
Co91       Cl102   2.454       .  S
N92         C103   1.351       .  A
C93        C1042   1.482       .  S
Co95       Cl102   2.449       .  S
C103        C754   1.481       .  S
C106        C143   1.462       .  S
C106       C1289   1.484       .  S
C106        N124   1.353       .  A
N107        N124   1.326       .  A
N107        N129   1.320       .  A
N107       Co144   2.094       .  S
C108        C146   1.455       .  S
C108        H153   1.082       .  S
C108        N133   1.340       .  A
H109        C150   1.081       .  S
C110        C114   1.463       .  S
C110        H139   1.082       .  S
C110        N134   1.343       .  A
Co111       N129   2.082       .  S
Co111       N119   2.091       .  S
Co111       N151   2.090       .  S
Co111       N127   2.078       .  S
Co111      Cl155   2.454       .  S
N112        C150   1.339       .  A
N112        N119   1.319       .  A
N112       Co113   2.083       .  S
Co113       N116   2.080       .  S
Co113       N133   2.079       .  S
Co113       N120   2.083       .  S
Co113      Cl155   2.449       .  S
C114       C1266   1.481       .  S
C114        N152   1.348       .  A
N115        N122   1.321       .  A
N115        N145   1.325       .  A
N115       Co148   2.088       .  S
N116        N134   1.320       .  A
N116        N152   1.323       .  A
N117        C146   1.347       .  A
N117        N127   1.322       .  A
H118        C143   1.082       .  S
N119        N140   1.326       .  A
N120        N138   1.319       .  A
N120        N125   1.325       .  A
C121        C149   1.463       .  S
C121        C690   1.480       .  S
C121        N125   1.350       .  A
N122        C137   1.341       .  A
N122       Co144   2.084       .  S
C123        C126   1.459       .  S
C123        H157   1.081       .  S
C123        N151   1.342       .  A
C126        C713   1.477       .  S
C126        N147   1.350       .  A
N127        N133   1.321       .  A
N128        C154   1.339       .  A
N128        N130   1.321       .  A
N128       Co144   2.084       .  S
N129        C143   1.340       .  A
N130        N158   1.325       .  A
N130       Co148   2.087       .  S
H131        C154   1.081       .  S
H132        C149   1.082       .  S
N134       Co148   2.093       .  S
N135        N147   1.327       .  A
N135        N151   1.320       .  A
N135       Co144   2.089       .  S
C136        C150   1.464       .  S
C136        C626   1.490       .  S
C136        N140   1.353       .  A
C137        C156   1.459       .  S
C137        H141   1.082       .  S
N138        C149   1.342       .  A
N138       Co148   2.090       .  S
C142        C154   1.458       .  S
C142       C1097   1.471       .  S
C142        N158   1.349       .  A
Co144      Cl155   2.451       .  S
N145        C156   1.349       .  A
C146       C1065   1.464       .  S
Co148      Cl155   2.452       .  S
C156        C649   1.476       .  S
C159        C196   1.464   1_565  S
C159        C978   1.490       .  S
C159        N177   1.352       .  A
N160        N177   1.325       .  A
N160        N182   1.320       .  A
N160       Co197   2.089       .  S
C161        C199   1.462       .  S
C161        H206   1.081       .  S
C161        N186   1.341       .  A
H162        C203   1.082       .  S
C163        C167   1.465       .  S
C163        H192   1.082       .  S
C163        N187   1.343       .  A
Co164       N182   2.088   1_545  S
Co164       N172   2.092       .  S
Co164       N204   2.088   1_545  S
Co164       N180   2.090       .  S
Co164      Cl208   2.454   1_445  S
N165        C203   1.339       .  A
N165        N172   1.320   1_655  A
N165       Co166   2.077       .  S
Co166       N169   2.087   1_545  S
Co166       N186   2.090       .  S
Co166       N173   2.079   1_545  S
Co166      Cl208   2.450   1_545  S
C167        C946   1.486       .  S
C167        N205   1.351   1_565  A
N168        N175   1.321   1_655  A
N168        N198   1.325       .  A
N168       Co201   2.087       .  S
N169        N187   1.319       .  A
N169        N205   1.325   1_565  A
N170        C199   1.352   1_455  A
N170        N180   1.327       .  A
H171        C196   1.081       .  S
N172        N193   1.325       .  A
N173        N191   1.320       .  A
N173        N178   1.323       .  A
C174        C202   1.455       .  S
C174        C530   1.467       .  S
C174        N178   1.349       .  A
N175        C190   1.343       .  A
N175       Co197   2.094       .  S
C176        C179   1.463   1_545  S
C176        H210   1.082       .  S
C176        N204   1.342   1_545  A
C179        C489   1.481       .  S
C179        N200   1.351       .  A
N180        N186   1.320   1_455  A
N181        C207   1.343       .  A
N181        N183   1.319   1_455  A
N181       Co197   2.087       .  S
N182        C196   1.340   1_565  A
N183        N211   1.323       .  A
N183       Co201   2.084       .  S
H184        C207   1.082       .  S
H185        C202   1.082       .  S
N187       Co201   2.090       .  S
N188        N200   1.324       .  A
N188        N204   1.320       .  A
N188       Co197   2.088       .  S
C189        C203   1.460   1_455  S
C189        C818   1.485       .  S
C189        N193   1.352       .  A
C190        C209   1.463       .  S
C190        H194   1.082       .  S
N191        C202   1.339       .  A
N191       Co201   2.078       .  S
C195        C207   1.464   1_655  S
C195        C594   1.485       .  S
C195        N211   1.349       .  A
Co197      Cl208   2.454   1_455  S
N198        C209   1.351   1_655  A
C199        C553   1.483       .  S
Co201      Cl208   2.450       .  S
C209        C850   1.482       .  S
C212        C249   1.465       .  S
C212        C329   1.489   1_455  S
C212        N230   1.350   1_455  A
N213        N230   1.324       .  A
N213        N235   1.320   1_655  A
N213       Co250   2.084       .  S
C214        C252   1.455       .  S
C214        H259   1.081       .  S
C214        N239   1.339       .  A
H215        C256   1.081       .  S
C216        C220   1.466       .  S
C216        H245   1.082       .  S
C216        N240   1.343       .  A
Co217       N235   2.093       .  S
Co217       N225   2.092   1_545  S
Co217       N257   2.084       .  S
Co217       N233   2.088   1_545  S
Co217      Cl261   2.451   1_545  S
N218        C256   1.342       .  A
N218        N225   1.321       .  A
N218       Co219   2.088       .  S
Co219       N222   2.083       .  S
Co219       N239   2.078       .  S
Co219       N226   2.088       .  S
Co219      Cl261   2.451       .  S
C220        C297   1.485       .  S
C220        N258   1.350   1_655  A
N221        N228   1.320   1_565  A
N221        N251   1.326       .  A
N221       Co254   2.091       .  S
N222        N240   1.320   1_455  A
N222        N258   1.324       .  A
N223        C252   1.350       .  A
N223        N233   1.325       .  A
H224        C249   1.081       .  S
N225        N246   1.326   1_565  A
N226        N244   1.319   1_455  A
N226        N231   1.325       .  A
C227        C255   1.461   1_455  S
C227        C393   1.484       .  S
C227        N231   1.350       .  A
N228        C243   1.339       .  A
N228       Co250   2.088       .  S
C229        C232   1.460       .  S
C229        H263   1.081       .  S
C229        N257   1.339       .  A
C232        C361   1.482       .  S
C232        N253   1.352   1_455  A
N233        N239   1.320       .  A
N234        C260   1.341   1_565  A
N234        N236   1.320       .  A
N234       Co250   2.084   1_565  S
N235        C249   1.342       .  A
N236        N264   1.325       .  A
N236       Co254   2.088       .  S
H237        C260   1.082       .  S
H238        C255   1.081       .  S
N240       Co254   2.096       .  S
N241        N253   1.327       .  A
N241        N257   1.319   1_655  A
N241       Co250   2.090       .  S
C242        C256   1.461       .  S
C242       C1234   1.481       .  S
C242        N246   1.351   1_565  A
C243        C262   1.464   1_545  S
C243        H247   1.081       .  S
N244        C255   1.343       .  A
N244       Co254   2.087       .  S
C248        C260   1.461   1_565  S
C248        C457   1.477       .  S
C248        N264   1.350       .  A
Co250      Cl261   2.451   1_645  S
N251        C262   1.353       .  A
C252        C425   1.467       .  S
Co254      Cl261   2.456   1_655  S
C262       C1193   1.491       .  S
C265        C266   1.419       .  A
C265        C270   1.406       .  A
C265        C585   1.490       .  S
C266        C267   1.408       .  A
C266        C402   1.492       .  S
C267        C268   1.406       .  A
C267        H272   1.084       .  S
C268        C269   1.411       .  A
C268        C370   1.488       .  S
C269        C270   1.402       .  A
C269        C562   1.485       .  S
C270        H271   1.084       .  S
C273        C274   1.412       .  A
C273        C278   1.405       .  A
C273        C521   1.479       .  S
C274        C275   1.400       .  A
C274        C466   1.484       .  S
C275        C276   1.400       .  A
C275        H280   1.085       .  S
C276        C277   1.414       .  A
C276        C434   1.477       .  S
C277        C278   1.403       .  A
C277        C498   1.489       .  S
C278        H279   1.084       .  S
C281        C282   1.549       .  S
C281        C287   1.538       .  S
C281        C285   1.534   1_655  S
C281        C338   1.546       .  S
C282        H289   1.080       .  S
C282        C283   1.367       .  D
C283        C284   1.541       .  S
C283        C658   1.489       .  S
C284        C288   1.546   1_655  S
C284        C286   1.544   1_655  S
C284        H290   1.109       .  S
C285        H291   1.087       .  S
C285        C286   1.365       .  D
C286        C617   1.487       .  S
C287        H292   1.086       .  S
C287        C288   1.367   1_655  D
C288        C306   1.496   1_455  S
C293        C294   1.401       .  A
C293        C298   1.406       .  A
C293        H303   1.084       .  S
C294        C295   1.411   1_655  A
C294        C299   1.485       .  S
C295        C300   1.507       .  S
C295        C296   1.404       .  A
C296        C297   1.406   1_455  A
C296        H301   1.084       .  S
C297        C298   1.418       .  A
C298        C302   1.505       .  S
C299        C304   1.409       .  A
C299        C308   1.401   1_655  A
C300        H316   1.110       .  S
C300        H317   1.110       .  S
C300        H318   1.111       .  S
C302        H313   1.110       .  S
C302        H314   1.111       .  S
C302        H315   1.106       .  S
C304        C309   1.506       .  S
C304        C305   1.403       .  A
C305        C306   1.408       .  A
C305        H310   1.084       .  S
C306        C307   1.421   1_655  A
C307        C311   1.504       .  S
C307        C308   1.407       .  A
C308        H312   1.085       .  S
C309        H319   1.111       .  S
C309        H320   1.110       .  S
C309        H321   1.110       .  S
C311        H322   1.110       .  S
C311        H323   1.098       .  S
C311        H324   1.111       .  S
C325        C326   1.402       .  A
C325        C330   1.406       .  A
C325        H335   1.084       .  S
C326        C327   1.412   1_655  A
C326        C331   1.489       .  S
C327        C332   1.507       .  S
C327        C328   1.405       .  A
C328        C329   1.405   1_455  A
C328        H333   1.083       .  S
C329        C330   1.420       .  A
C330        C334   1.508       .  S
C331        C336   1.408       .  A
C331        C340   1.398   1_655  A
C332        H348   1.109       .  S
C332        H349   1.110       .  S
C332        H350   1.111       .  S
C334        H345   1.110       .  S
C334        H346   1.111       .  S
C334        H347   1.110       .  S
C336        C341   1.509       .  S
C336        C337   1.406       .  A
C337        C338   1.416       .  A
C337        H342   1.073       .  S
C338        C339   1.431   1_655  A
C339        C343   1.512       .  S
C339        C340   1.405       .  A
C340        H344   1.084       .  S
C341        H351   1.111       .  S
C341        H352   1.109       .  S
C341        H353   1.111       .  S
C343        H354   1.110       .  S
C343        H355   1.102       .  S
C343        H356   1.111       .  S
C357        C358   1.399       .  A
C357        C362   1.403       .  A
C357        H367   1.084       .  S
C358        C359   1.411   1_455  A
C358        C363   1.483   1_455  S
C359        C364   1.506       .  S
C359        C360   1.408       .  A
C360        C361   1.405   1_655  A
C360        H365   1.084       .  S
C361        C362   1.418       .  A
C362        C366   1.508       .  S
C363        C368   1.411   1_655  A
C363        C372   1.401       .  A
C364        H380   1.110       .  S
C364        H381   1.111       .  S
C364        H382   1.111       .  S
C366        H377   1.107       .  S
C366        H378   1.111       .  S
C366        H379   1.111       .  S
C368        C373   1.506       .  S
C368        C369   1.405       .  A
C369        C370   1.405   1_455  A
C369        H374   1.083       .  S
C370        C371   1.414       .  A
C371        C375   1.507       .  S
C371        C372   1.404       .  A
C372        H376   1.084       .  S
C373        H383   1.111       .  S
C373        H384   1.110       .  S
C373        H385   1.111       .  S
C375        H386   1.109       .  S
C375        H387   1.110       .  S
C375        H388   1.111       .  S
C389        C390   1.400   1_455  A
C389        C394   1.403       .  A
C389        H399   1.084       .  S
C390        C391   1.411       .  A
C390        C395   1.483       .  S
C391        C396   1.507       .  S
C391        C392   1.408       .  A
C392        C393   1.407   1_655  A
C392        H397   1.084       .  S
C393        C394   1.417       .  A
C394        C398   1.507       .  S
C395        C400   1.412       .  A
C395        C404   1.401   1_655  A
C396        H412   1.111       .  S
C396        H413   1.108       .  S
C396        H414   1.111       .  S
C398        H409   1.111       .  S
C398        H410   1.110       .  S
C398        H411   1.110       .  S
C400        C405   1.508       .  S
C400        C401   1.404       .  A
C401        C402   1.405       .  A
C401        H406   1.084       .  S
C402        C403   1.418   1_655  A
C403        C407   1.506       .  S
C403        C404   1.405       .  A
C404        H408   1.084       .  S
C405        H415   1.111       .  S
C405        H416   1.110       .  S
C405        H417   1.108       .  S
C407        H418   1.110       .  S
C407        H419   1.108       .  S
C407        H420   1.111       .  S
C421        C422   1.401       .  A
C421        C426   1.401       .  A
C421        H431   1.085       .  S
C422        C423   1.412       .  A
C422        C427   1.479       .  S
C423        C428   1.507       .  S
C423        C424   1.404       .  A
C424        C425   1.401       .  A
C424        H429   1.084       .  S
C425        C426   1.414       .  A
C426        C430   1.509       .  S
C427        C432   1.411       .  A
C427        C436   1.402       .  A
C428        H444   1.110       .  S
C428        H445   1.111       .  S
C428        H446   1.111       .  S
C430        H441   1.110       .  S
C430        H442   1.110       .  S
C430        H443   1.108       .  S
C432        C437   1.507       .  S
C432        C433   1.401       .  A
C433        C434   1.403       .  A
C433        H438   1.084       .  S
C434        C435   1.413   1_565  A
C435        C439   1.507       .  S
C435        C436   1.400   1_545  A
C436        H440   1.084   1_565  S
C437        H447   1.111       .  S
C437        H448   1.109       .  S
C437        H449   1.110       .  S
C439        H450   1.110       .  S
C439        H451   1.107       .  S
C439        H452   1.110       .  S
C453        C454   1.402       .  A
C453        C458   1.405       .  A
C453        H463   1.085   1_565  S
C454        C455   1.411       .  A
C454        C459   1.481       .  S
C455        C460   1.508       .  S
C455        C456   1.403       .  A
C456        C457   1.404       .  A
C456        H461   1.084       .  S
C457        C458   1.417       .  A
C458        C462   1.508   1_565  S
C459        C464   1.412       .  A
C459        C468   1.400       .  A
C460        H476   1.110       .  S
C460        H477   1.108       .  S
C460        H478   1.111       .  S
C462        H473   1.110   1_545  S
C462        H474   1.110       .  S
C462        H475   1.107       .  S
C464        C469   1.507       .  S
C464        C465   1.405       .  A
C465        C466   1.404       .  A
C465        H470   1.084       .  S
C466        C467   1.416   1_565  A
C467        C471   1.508       .  S
C467        C468   1.401   1_545  A
C468        H472   1.085   1_565  S
C469        H479   1.111       .  S
C469        H480   1.110       .  S
C469        H481   1.108       .  S
C471        H482   1.111       .  S
C471        H483   1.108       .  S
C471        H484   1.110       .  S
C485        C486   1.402       .  A
C485        C490   1.406       .  A
C485        H495   1.085   1_565  S
C486        C487   1.410       .  A
C486        C491   1.481       .  S
C487        C492   1.508       .  S
C487        C488   1.402       .  A
C488        C489   1.405       .  A
C488        H493   1.084       .  S
C489        C490   1.417       .  A
C490        C494   1.507   1_565  S
C491        C496   1.410       .  A
C491        C500   1.400       .  A
C492        H508   1.110       .  S
C492        H509   1.108       .  S
C492        H510   1.111       .  S
C494        H505   1.111       .  S
C494        H506   1.110       .  S
C494        H507   1.107       .  S
C496        C501   1.507       .  S
C496        C497   1.403       .  A
C497        C498   1.405       .  A
C497        H502   1.083       .  S
C498        C499   1.418   1_565  A
C499        C503   1.508       .  S
C499        C500   1.403   1_545  A
C500        H504   1.085   1_565  S
C501        H511   1.111       .  S
C501        H512   1.110       .  S
C501        H513   1.108       .  S
C503        H514   1.111       .  S
C503        H515   1.107       .  S
C503        H516   1.110       .  S
C517        C518   1.399       .  A
C517        C522   1.400       .  A
C517        H527   1.085       .  S
C518        C519   1.409       .  A
C518        C523   1.473       .  S
C519        C524   1.507   1_565  S
C519        C520   1.400       .  A
C520        C521   1.404       .  A
C520        H525   1.084   1_565  S
C521        C522   1.416       .  A
C522        C526   1.508       .  S
C523        C528   1.409       .  A
C523        C532   1.400       .  A
C524        H540   1.110       .  S
C524        H541   1.109       .  S
C524        H542   1.111       .  S
C526        H537   1.110       .  S
C526        H538   1.110       .  S
C526        H539   1.107       .  S
C528        C533   1.507       .  S
C528        C529   1.399       .  A
C529        C530   1.401       .  A
C529        H534   1.084       .  S
C530        C531   1.415       .  A
C531        C535   1.508       .  S
C531        C532   1.402       .  A
C532        H536   1.085       .  S
C533        H543   1.111   1_565  S
C533        H544   1.110       .  S
C533        H545   1.109   1_565  S
C535        H546   1.110       .  S
C535        H547   1.107       .  S
C535        H548   1.110       .  S
C549        C550   1.400       .  A
C549        C554   1.405       .  A
C549        H559   1.084       .  S
C550        C551   1.412   1_655  A
C550        C555   1.485       .  S
C551        C556   1.507       .  S
C551        C552   1.409       .  A
C552        C553   1.405   1_455  A
C552        H557   1.084       .  S
C553        C554   1.417       .  A
C554        C558   1.507       .  S
C555        C560   1.412       .  A
C555        C564   1.401   1_655  A
C556        H572   1.110       .  S
C556        H573   1.111       .  S
C556        H574   1.111       .  S
C558        H569   1.108       .  S
C558        H570   1.111       .  S
C558        H571   1.111       .  S
C560        C565   1.505       .  S
C560        C561   1.406       .  A
C561        C562   1.403       .  A
C561        H566   1.084       .  S
C562        C563   1.416   1_655  A
C563        C567   1.508       .  S
C563        C564   1.403       .  A
C564        H568   1.084       .  S
C565        H575   1.111       .  S
C565        H576   1.110       .  S
C565        H577   1.110       .  S
C567        H578   1.110       .  S
C567        H579   1.108       .  S
C567        H580   1.110       .  S
C581        C582   1.402       .  A
C581        C586   1.405       .  A
C581        H591   1.084       .  S
C582        C583   1.410   1_655  A
C582        C587   1.480       .  S
C583        C588   1.508       .  S
C583        C584   1.400       .  A
C584        C585   1.405   1_455  A
C584        H589   1.084       .  S
C585        C586   1.418       .  A
C586        C590   1.506       .  S
C587        C592   1.410   1_655  A
C587        C596   1.399       .  A
C588        H604   1.110       .  S
C588        H605   1.108       .  S
C588        H606   1.111       .  S
C590        H601   1.111       .  S
C590        H602   1.110       .  S
C590        H603   1.108       .  S
C592        C597   1.507       .  S
C592        C593   1.406       .  A
C593        C594   1.406   1_455  A
C593        H598   1.084       .  S
C594        C595   1.419       .  A
C595        C599   1.508       .  S
C595        C596   1.402       .  A
C596        H600   1.084       .  S
C597        H607   1.111       .  S
C597        H608   1.110       .  S
C597        H609   1.108       .  S
C599        H610   1.111       .  S
C599        H611   1.110       .  S
C599        H612   1.110       .  S
C613        C614   1.405       .  A
C613        C618   1.408       .  A
C613        H623   1.084       .  S
C614        C615   1.412       .  A
C614        C619   1.488       .  S
C615        C620   1.507       .  S
C615        C616   1.402       .  A
C616        C617   1.404       .  A
C616        H621   1.084       .  S
C617        C618   1.413       .  A
C618        C622   1.506       .  S
C619        C624   1.411       .  A
C619        C628   1.403       .  A
C620        H636   1.109       .  S
C620        H637   1.110       .  S
C620        H638   1.111       .  S
C622        H633   1.111       .  S
C622        H634   1.107       .  S
C622        H635   1.110       .  S
C624        C629   1.508       .  S
C624        C625   1.403       .  A
C625        C626   1.407       .  A
C625        H630   1.082       .  S
C626        C627   1.418       .  A
C627        C631   1.507       .  S
C627        C628   1.408       .  A
C628        H632   1.084       .  S
C629        H639   1.111       .  S
C629        H640   1.109       .  S
C629        H641   1.110       .  S
C631        H642   1.109       .  S
C631        H643   1.110       .  S
C631        H644   1.111       .  S
C645        C646   1.401       .  A
C645        C650   1.404       .  A
C645        H655   1.084       .  S
C646        C647   1.412       .  A
C646        C651   1.482       .  S
C647        C652   1.507       .  S
C647        C648   1.404       .  A
C648        C649   1.402       .  A
C648        H653   1.084       .  S
C649        C650   1.418       .  A
C650        C654   1.508       .  S
C651        C656   1.410       .  A
C651        C660   1.401       .  A
C652        H668   1.110       .  S
C652        H669   1.109       .  S
C652        H670   1.111       .  S
C654        H665   1.111       .  S
C654        H666   1.110       .  S
C654        H667   1.106       .  S
C656        C661   1.507       .  S
C656        C657   1.403       .  A
C657        C658   1.406       .  A
C657        H662   1.084       .  S
C658        C659   1.418       .  A
C659        C663   1.504       .  S
C659        C660   1.405       .  A
C660        H664   1.084       .  S
C661        H671   1.111       .  S
C661        H672   1.110       .  S
C661        H673   1.109       .  S
C663        H674   1.110       .  S
C663        H675   1.100       .  S
C663        H676   1.110       .  S
C677        C678   1.401       .  A
C677        C682   1.402       .  A
C677        H687   1.084       .  S
C678        C679   1.411       .  A
C678        C683   1.482       .  S
C679        C684   1.507       .  S
C679        C680   1.404       .  A
C680        C681   1.405       .  A
C680        H685   1.084       .  S
C681        C682   1.417       .  A
C682        C686   1.508       .  S
C683        C688   1.411       .  A
C683        C692   1.402       .  A
C684        H700   1.110       .  S
C684        H701   1.108       .  S
C684        H702   1.111       .  S
C686        H697   1.110       .  S
C686        H698   1.111       .  S
C686        H699   1.106       .  S
C688        C693   1.508       .  S
C688        C689   1.403       .  A
C689        C690   1.405       .  A
C689        H694   1.084       .  S
C690        C691   1.417       .  A
C691        C695   1.507       .  S
C691        C692   1.405       .  A
C692        H696   1.085       .  S
C693        H703   1.111       .  S
C693        H704   1.110       .  S
C693        H705   1.108       .  S
C695        H706   1.110       .  S
C695        H707   1.107       .  S
C695        H708   1.111       .  S
C709        C710   1.402       .  A
C709        C714   1.404       .  A
C709        H719   1.084       .  S
C710        C711   1.412       .  A
C710        C715   1.486       .  S
C711        C716   1.506       .  S
C711        C712   1.408       .  A
C712        C713   1.403       .  A
C712        H717   1.084       .  S
C713        C714   1.415       .  A
C714        C718   1.508       .  S
C715        C720   1.412       .  A
C715        C724   1.401       .  A
C716        H732   1.110       .  S
C716        H733   1.110       .  S
C716        H734   1.111       .  S
C718        H729   1.110       .  S
C718        H730   1.111       .  S
C718        H731   1.108       .  S
C720        C725   1.506       .  S
C720        C721   1.407       .  A
C721        C722   1.404       .  A
C721        H726   1.084       .  S
C722        C723   1.417       .  A
C723        C727   1.507       .  S
C723        C724   1.404       .  A
C724        H728   1.084       .  S
C725        H735   1.111       .  S
C725        H736   1.110       .  S
C725        H737   1.110       .  S
C727        H738   1.110       .  S
C727        H739   1.107       .  S
C727        H740   1.110       .  S
C741        C742   1.402       .  A
C741        C746   1.405       .  A
C741        H751   1.084       .  S
C742        C743   1.412       .  A
C742        C747   1.486       .  S
C743        C748   1.507       .  S
C743        C744   1.404       .  A
C744        C745   1.405       .  A
C744        H749   1.084       .  S
C745        C746   1.417       .  A
C746        C750   1.507       .  S
C747        C752   1.412       .  A
C747        C756   1.402       .  A
C748        H764   1.110       .  S
C748        H765   1.107       .  S
C748        H766   1.111       .  S
C750        H761   1.110       .  S
C750        H762   1.111       .  S
C750        H763   1.107       .  S
C752        C757   1.508       .  S
C752        C753   1.405       .  A
C753        C754   1.404       .  A
C753        H758   1.084       .  S
C754        C755   1.417       .  A
C755        C759   1.508       .  S
C755        C756   1.406       .  A
C756        H760   1.084       .  S
C757        H767   1.111       .  S
C757        H768   1.110       .  S
C757        H769   1.108       .  S
C759        H770   1.110       .  S
C759        H771   1.107       .  S
C759        H772   1.110       .  S
C773        C774   1.403       .  A
C773        C778   1.404       .  A
C773        H783   1.084       .  S
C774        C775   1.412       .  A
C774        C779   1.485       .  S
C775        C780   1.507       .  S
C775        C776   1.403       .  A
C776        C777   1.404       .  A
C776        H781   1.082       .  S
C777        C778   1.415       .  A
C778        C782   1.507       .  S
C779        C784   1.412       .  A
C779        C788   1.403       .  A
C780        H796   1.109       .  S
C780        H797   1.111       .  S
C780        H798   1.111       .  S
C782        H793   1.110       .  S
C782        H794   1.108       .  S
C782        H795   1.111       .  S
C784        C789   1.507       .  S
C784        C785   1.404       .  A
C785        C786   1.404       .  A
C785        H790   1.084       .  S
C786        C787   1.416       .  A
C787        C791   1.507       .  S
C787        C788   1.404       .  A
C788        H792   1.084       .  S
C789        H799   1.111       .  S
C789        H800   1.109       .  S
C789        H801   1.111       .  S
C791        H802   1.111       .  S
C791        H803   1.110       .  S
C791        H804   1.111       .  S
C805        C806   1.396       .  A
C805        C810   1.404       .  A
C805        H815   1.085       .  S
C806        C807   1.406   1_655  A
C806        C811   1.483       .  S
C807        C812   1.508       .  S
C807        C808   1.404       .  A
C808        C809   1.415   1_455  A
C808        H813   1.074       .  S
C809        C810   1.431       .  A
C810        C814   1.510       .  S
C811        C816   1.410       .  A
C811        C820   1.401   1_655  A
C812        H828   1.110       .  S
C812        H829   1.110       .  S
C812        H830   1.111       .  S
C814        H825   1.111       .  S
C814        H826   1.110       .  S
C814        H827   1.100       .  S
C816        C821   1.507       .  S
C816        C817   1.404       .  A
C817        C818   1.406   1_655  A
C817        H822   1.084       .  S
C818        C819   1.418       .  A
C819        C823   1.507       .  S
C819        C820   1.404       .  A
C820        H824   1.084       .  S
C821        H831   1.111       .  S
C821        H832   1.110       .  S
C821        H833   1.110       .  S
C823        H834   1.110       .  S
C823        H835   1.110       .  S
C823        H836   1.111       .  S
C837        C838   1.402   1_655  A
C837        C842   1.405       .  A
C837        H847   1.084       .  S
C838        C839   1.412       .  A
C838        C843   1.486       .  S
C839        C844   1.507       .  S
C839        C840   1.405       .  A
C840        C841   1.402       .  A
C840        H845   1.081       .  S
C841        C842   1.415   1_455  A
C842        C846   1.505       .  S
C843        C848   1.414       .  A
C843        C852   1.401   1_455  A
C844        H860   1.110       .  S
C844        H861   1.107       .  S
C844        H862   1.111       .  S
C846        H857   1.106       .  S
C846        H858   1.111       .  S
C846        H859   1.111       .  S
C848        C853   1.509       .  S
C848        C849   1.406       .  A
C849        C850   1.405       .  A
C849        H854   1.084       .  S
C850        C851   1.417   1_455  A
C851        C855   1.508       .  S
C851        C852   1.405       .  A
C852        H856   1.084       .  S
C853        H863   1.111       .  S
C853        H864   1.110       .  S
C853        H865   1.107       .  S
C855        H866   1.110       .  S
C855        H867   1.107       .  S
C855        H868   1.110       .  S
C869        C870   1.399       .  A
C869        C874   1.402       .  A
C869        H879   1.085       .  S
C870        C871   1.410       .  A
C870        C875   1.480       .  S
C871        C876   1.507       .  S
C871        C872   1.403       .  A
C872        C873   1.402       .  A
C872        H877   1.081       .  S
C873        C874   1.420       .  A
C874        C878   1.509       .  S
C875        C880   1.410       .  A
C875        C884   1.402       .  A
C876        H892   1.110       .  S
C876        H893   1.108       .  S
C876        H894   1.111       .  S
C878        H889   1.111       .  S
C878        H890   1.110       .  S
C878        H891   1.107       .  S
C880        C885   1.507       .  S
C880        C881   1.404       .  A
C881        C882   1.404       .  A
C881        H886   1.084       .  S
C882        C883   1.414       .  A
C883        C887   1.508       .  S
C883        C884   1.403       .  A
C884        H888   1.085       .  S
C885        H895   1.111       .  S
C885        H896   1.110       .  S
C885        H897   1.109       .  S
C887        H898   1.110       .  S
C887        H899   1.107       .  S
C887        H900   1.111       .  S
C901        C902   1.400       .  A
C901        C906   1.405       .  A
C901        H911   1.084       .  S
C902        C903   1.409       .  A
C902        C907   1.483       .  S
C903        C908   1.507       .  S
C903        C904   1.402       .  A
C904        C905   1.407       .  A
C904        H909   1.084       .  S
C905        C906   1.421       .  A
C906        C910   1.507       .  S
C907        C912   1.409       .  A
C907        C916   1.402       .  A
C908        H924   1.109       .  S
C908        H925   1.110       .  S
C908        H926   1.111       .  S
C910        H921   1.111       .  S
C910        H922   1.107       .  S
C910        H923   1.110       .  S
C912        C917   1.507       .  S
C912        C913   1.401       .  A
C913        C914   1.406       .  A
C913        H918   1.084       .  S
C914        C915   1.418       .  A
C915        C919   1.506       .  S
C915        C916   1.406       .  A
C916        H920   1.084       .  S
C917        H927   1.111       .  S
C917        H928   1.109       .  S
C917        H929   1.111       .  S
C919        H930   1.106       .  S
C919        H931   1.106       .  S
C919        H932   1.111       .  S
C933        C934   1.401   1_545  A
C933        C938   1.403       .  A
C933        H943   1.085       .  S
C934        C935   1.413       .  A
C934        C939   1.487       .  S
C935        C940   1.507       .  S
C935        C936   1.407       .  A
C936        C937   1.403   1_565  A
C936        H941   1.082       .  S
C937        C938   1.417       .  A
C938        C942   1.507       .  S
C939        C944   1.412       .  A
C939        C948   1.402   1_565  A
C940        H956   1.110       .  S
C940        H957   1.106       .  S
C940        H958   1.111       .  S
C942        H953   1.110       .  S
C942        H954   1.110       .  S
C942        H955   1.106       .  S
C944        C949   1.508       .  S
C944        C945   1.406       .  A
C945        C946   1.407       .  A
C945        H950   1.083       .  S
C946        C947   1.419   1_565  A
C947        C951   1.509       .  S
C947        C948   1.405       .  A
C948        H952   1.085       .  S
C949        H959   1.111       .  S
C949        H960   1.110       .  S
C949        H961   1.107       .  S
C951        H962   1.111       .  S
C951        H963   1.106       .  S
C951        H964   1.110       .  S
C965        C966   1.401       .  A
C965        C970   1.406       .  A
C965        H975   1.084       .  S
C966        C967   1.409       .  A
C966        C971   1.485       .  S
C967        C972   1.506   1_565  S
C967        C968   1.404   1_565  A
C968        C969   1.408       .  A
C968        H973   1.084       .  S
C969        C970   1.418   1_545  A
C970        C974   1.504       .  S
C971        C976   1.410   1_565  A
C971        C980   1.401       .  A
C972        H988   1.110   1_545  S
C972        H989   1.110       .  S
C972        H990   1.111       .  S
C974        H985   1.111       .  S
C974        H986   1.106       .  S
C974        H987   1.103   1_565  S
C976        C981   1.508       .  S
C976        C977   1.402       .  A
C977        C978   1.407   1_545  A
C977        H982   1.082       .  S
C978        C979   1.420       .  A
C979        C983   1.507       .  S
C979        C980   1.408       .  A
C980        H984   1.084       .  S
C981        H991   1.111       .  S
C981        H992   1.110       .  S
C981        H993   1.110       .  S
C983        H994   1.109       .  S
C983        H995   1.111       .  S
C983        H996   1.111       .  S
C997        C998   1.398       .  A
C997       C1002   1.407       .  A
C997       H1007   1.085       .  S
C998        C999   1.406       .  A
C998       C1003   1.486       .  S
C999       C1004   1.509       .  S
C999       C1000   1.402       .  A
C1000      C1001   1.417       .  A
C1000      H1005   1.075       .  S
C1001      C1002   1.429       .  A
C1002      C1006   1.509       .  S
C1003      C1008   1.409       .  A
C1003      C1012   1.399       .  A
C1004      H1020   1.110       .  S
C1004      H1021   1.110       .  S
C1004      H1022   1.111       .  S
C1006      H1017   1.110       .  S
C1006      H1018   1.111       .  S
C1006      H1019   1.102       .  S
C1008      C1013   1.507       .  S
C1008      C1009   1.406       .  A
C1009      C1010   1.410       .  A
C1009      H1014   1.081       .  S
C1010      C1011   1.424       .  A
C1011      C1015   1.508       .  S
C1011      C1012   1.406       .  A
C1012      H1016   1.084       .  S
C1013      H1023   1.111       .  S
C1013      H1024   1.110       .  S
C1013      H1025   1.110       .  S
C1015      H1026   1.111       .  S
C1015      H1027   1.110       .  S
C1015      H1028   1.110       .  S
C1029      C1030   1.399       .  A
C1029      C1034   1.401       .  A
C1029      H1039   1.084       .  S
C1030      C1031   1.412       .  A
C1030      C1035   1.483       .  S
C1031      C1036   1.505       .  S
C1031      C1032   1.407       .  A
C1032      C1033   1.404       .  A
C1032      H1037   1.081       .  S
C1033      C1034   1.418       .  A
C1034      C1038   1.509       .  S
C1035      C1040   1.411       .  A
C1035      C1044   1.401       .  A
C1036      H1052   1.110       .  S
C1036      H1053   1.109       .  S
C1036      H1054   1.111       .  S
C1038      H1049   1.110       .  S
C1038      H1050   1.111       .  S
C1038      H1051   1.108       .  S
C1040      C1045   1.507       .  S
C1040      C1041   1.405       .  A
C1041      C1042   1.405       .  A
C1041      H1046   1.084       .  S
C1042      C1043   1.417       .  A
C1043      C1047   1.507       .  S
C1043      C1044   1.405       .  A
C1044      H1048   1.084       .  S
C1045      H1055   1.111       .  S
C1045      H1056   1.110       .  S
C1045      H1057   1.110       .  S
C1047      H1058   1.110       .  S
C1047      H1059   1.107       .  S
C1047      H1060   1.111       .  S
C1061      C1062   1.399       .  A
C1061      C1066   1.398       .  A
C1061      H1071   1.085       .  S
C1062      C1063   1.409       .  A
C1062      C1067   1.472       .  S
C1063      C1068   1.507       .  S
C1063      C1064   1.403       .  A
C1064      C1065   1.402       .  A
C1064      H1069   1.084       .  S
C1065      C1066   1.414       .  A
C1066      C1070   1.509       .  S
C1067      C1072   1.409       .  A
C1067      C1076   1.401       .  A
C1068      H1084   1.110       .  S
C1068      H1085   1.110       .  S
C1068      H1086   1.111       .  S
C1070      H1081   1.111       .  S
C1070      H1082   1.110       .  S
C1070      H1083   1.107       .  S
C1072      C1077   1.507       .  S
C1072      C1073   1.397       .  A
C1073      C1074   1.403       .  A
C1073      H1078   1.084       .  S
C1074      C1075   1.414       .  A
C1075      C1079   1.507       .  S
C1075      C1076   1.402       .  A
C1076      H1080   1.084       .  S
C1077      H1087   1.111       .  S
C1077      H1088   1.110       .  S
C1077      H1089   1.110       .  S
C1079      H1090   1.111       .  S
C1079      H1091   1.107       .  S
C1079      H1092   1.110       .  S
C1093      C1094   1.400       .  A
C1093      C1098   1.401       .  A
C1093      H1103   1.085       .  S
C1094      C1095   1.410       .  A
C1094      C1099   1.477       .  S
C1095      C1100   1.507       .  S
C1095      C1096   1.404       .  A
C1096      C1097   1.402       .  A
C1096      H1101   1.084       .  S
C1097      C1098   1.417       .  A
C1098      C1102   1.509       .  S
C1099      C1104   1.410       .  A
C1099      C1108   1.400       .  A
C1100      H1116   1.110       .  S
C1100      H1117   1.111       .  S
C1100      H1118   1.111       .  S
C1102      H1113   1.110       .  S
C1102      H1114   1.111       .  S
C1102      H1115   1.106       .  S
C1104      C1109   1.506       .  S
C1104      C1105   1.402       .  A
C1105      C1106   1.402       .  A
C1105      H1110   1.084       .  S
C1106      C1107   1.415       .  A
C1107      C1111   1.508       .  S
C1107      C1108   1.401       .  A
C1108      H1112   1.085       .  S
C1109      H1119   1.111       .  S
C1109      H1120   1.110       .  S
C1109      H1121   1.110       .  S
C1111      H1122   1.110       .  S
C1111      H1123   1.108       .  S
C1111      H1124   1.110       .  S
C1125      C1126   1.401       .  A
C1125      C1130   1.405       .  A
C1125      H1135   1.084       .  S
C1126      C1127   1.410       .  A
C1126      C1131   1.482       .  S
C1127      C1132   1.508       .  S
C1127      C1128   1.402       .  A
C1128      C1129   1.406       .  A
C1128      H1133   1.082       .  S
C1129      C1130   1.419       .  A
C1130      C1134   1.508       .  S
C1131      C1136   1.412       .  A
C1131      C1140   1.402       .  A
C1132      H1148   1.111       .  S
C1132      H1149   1.108       .  S
C1132      H1150   1.111       .  S
C1134      H1145   1.110       .  S
C1134      H1146   1.111       .  S
C1134      H1147   1.106       .  S
C1136      C1141   1.508       .  S
C1136      C1137   1.402       .  A
C1137      C1138   1.403       .  A
C1137      H1142   1.084       .  S
C1138      C1139   1.418       .  A
C1139      C1143   1.509       .  S
C1139      C1140   1.406       .  A
C1140      H1144   1.084       .  S
C1141      H1151   1.111       .  S
C1141      H1152   1.110       .  S
C1141      H1153   1.108       .  S
C1143      H1154   1.111       .  S
C1143      H1155   1.107       .  S
C1143      H1156   1.111       .  S
C1157      C1158   1.401       .  A
C1157      C1162   1.402       .  A
C1157      H1167   1.085       .  S
C1158      C1159   1.410       .  A
C1158      C1163   1.479       .  S
C1159      C1164   1.506       .  S
C1159      C1160   1.402       .  A
C1160      C1161   1.404       .  A
C1160      H1165   1.084       .  S
C1161      C1162   1.415       .  A
C1162      C1166   1.507       .  S
C1163      C1168   1.410       .  A
C1163      C1172   1.400       .  A
C1164      H1180   1.110       .  S
C1164      H1181   1.110       .  S
C1164      H1182   1.111       .  S
C1166      H1177   1.110       .  S
C1166      H1178   1.110       .  S
C1166      H1179   1.107       .  S
C1168      C1173   1.506       .  S
C1168      C1169   1.405       .  A
C1169      C1170   1.403       .  A
C1169      H1174   1.084       .  S
C1170      C1171   1.417       .  A
C1171      C1175   1.509       .  S
C1171      C1172   1.401       .  A
C1172      H1176   1.085       .  S
C1173      H1183   1.111       .  S
C1173      H1184   1.110       .  S
C1173      H1185   1.111       .  S
C1175      H1186   1.111       .  S
C1175      H1187   1.105       .  S
C1175      H1188   1.110       .  S
C1189      C1190   1.402       .  A
C1189      C1194   1.408       .  A
C1189      H1199   1.084       .  S
C1190      C1191   1.410   1_565  A
C1190      C1195   1.487       .  S
C1191      C1196   1.507       .  S
C1191      C1192   1.403       .  A
C1192      C1193   1.407   1_545  A
C1192      H1197   1.082       .  S
C1193      C1194   1.419       .  A
C1194      C1198   1.505       .  S
C1195      C1200   1.411   1_565  A
C1195      C1204   1.403       .  A
C1196      H1212   1.110       .  S
C1196      H1213   1.110       .  S
C1196      H1214   1.111       .  S
C1198      H1209   1.111       .  S
C1198      H1210   1.109       .  S
C1198      H1211   1.109       .  S
C1200      C1205   1.507       .  S
C1200      C1201   1.404       .  A
C1201      C1202   1.407       .  A
C1201      H1206   1.084       .  S
C1202      C1203   1.414   1_545  A
C1203      C1207   1.505       .  S
C1203      C1204   1.407       .  A
C1204      H1208   1.084       .  S
C1205      H1215   1.111       .  S
C1205      H1216   1.110   1_545  S
C1205      H1217   1.111       .  S
C1207      H1218   1.107       .  S
C1207      H1219   1.109   1_565  S
C1207      H1220   1.111       .  S
C1221      C1222   1.401       .  A
C1221      C1226   1.407       .  A
C1221      H1231   1.084       .  S
C1222      C1223   1.410   1_565  A
C1222      C1227   1.487       .  S
C1223      C1228   1.506       .  S
C1223      C1224   1.405       .  A
C1224      C1225   1.407       .  A
C1224      H1229   1.084       .  S
C1225      C1226   1.418   1_545  A
C1226      C1230   1.504       .  S
C1227      C1232   1.412   1_565  A
C1227      C1236   1.401       .  A
C1228      H1244   1.110       .  S
C1228      H1245   1.110       .  S
C1228      H1246   1.111       .  S
C1230      H1241   1.110       .  S
C1230      H1242   1.110       .  S
C1230      H1243   1.100       .  S
C1232      C1237   1.506       .  S
C1232      C1233   1.407   1_545  A
C1233      C1234   1.403       .  A
C1233      H1238   1.084   1_565  S
C1234      C1235   1.419       .  A
C1235      C1239   1.508       .  S
C1235      C1236   1.406       .  A
C1236      H1240   1.084       .  S
C1237      H1247   1.111       .  S
C1237      H1248   1.110       .  S
C1237      H1249   1.110       .  S
C1239      H1250   1.110       .  S
C1239      H1251   1.105       .  S
C1239      H1252   1.111       .  S
C1253      C1254   1.395       .  A
C1253      C1258   1.403       .  A
C1253      H1263   1.085       .  S
C1254      C1255   1.406       .  A
C1254      C1259   1.483       .  S
C1255      C1260   1.507       .  S
C1255      C1256   1.406       .  A
C1256      C1257   1.416       .  A
C1256      H1261   1.075       .  S
C1257      C1258   1.432       .  A
C1258      C1262   1.512       .  S
C1259      C1264   1.411       .  A
C1259      C1268   1.400       .  A
C1260      H1276   1.110       .  S
C1260      H1277   1.111       .  S
C1260      H1278   1.111       .  S
C1262      H1273   1.111       .  S
C1262      H1274   1.111       .  S
C1262      H1275   1.102       .  S
C1264      C1269   1.506       .  S
C1264      C1265   1.406       .  A
C1265      C1266   1.404       .  A
C1265      H1270   1.084       .  S
C1266      C1267   1.417       .  A
C1267      C1271   1.508       .  S
C1267      C1268   1.404       .  A
C1268      H1272   1.084       .  S
C1269      H1279   1.111       .  S
C1269      H1280   1.110       .  S
C1269      H1281   1.110       .  S
C1271      H1282   1.111       .  S
C1271      H1283   1.109       .  S
C1271      H1284   1.111       .  S
C1285      C1286   1.401       .  A
C1285      C1290   1.406       .  A
C1285      H1295   1.084       .  S
C1286      C1287   1.411       .  A
C1286      C1291   1.485       .  S
C1287      C1292   1.507       .  S
C1287      C1288   1.405       .  A
C1288      C1289   1.405       .  A
C1288      H1293   1.084       .  S
C1289      C1290   1.418       .  A
C1290      C1294   1.508       .  S
C1291      C1296   1.409       .  A
C1291      C1300   1.400       .  A
C1292      H1308   1.110       .  S
C1292      H1309   1.110       .  S
C1292      H1310   1.111       .  S
C1294      H1305   1.110       .  S
C1294      H1306   1.111       .  S
C1294      H1307   1.107       .  S
C1296      C1301   1.506       .  S
C1296      C1297   1.405       .  A
C1297      C1298   1.409       .  A
C1297      H1302   1.084       .  S
C1298      C1299   1.421       .  A
C1299      C1303   1.504       .  S
C1299      C1300   1.406       .  A
C1300      H1304   1.085       .  S
C1301      H1311   1.111       .  S
C1301      H1312   1.110       .  S
C1301      H1313   1.110       .  S
C1303      H1314   1.110       .  S
C1303      H1315   1.099       .  S
C1303      H1316   1.111       .  S
