geometry optimzed in LAMMPS
_audit_creation_date              2020-12-01 
_audit_creation_method            'lammps2cif' 
_symmetry_space_group_name_H-M    'P1' 
_symmetry_Int_Tables_number       1 
_symmetry_cell_setting            triclinic 
loop_ 
_symmetry_equiv_pos_as_xyz 
  x,y,z 
_cell_length_a                    34.16499801 
_cell_length_b                    46.08887593218278 
_cell_length_c                    37.09077142953033 
_cell_angle_alpha                 97.80701628403082 
_cell_angle_beta                  91.27361808814223 
_cell_angle_gamma                 123.83371226968804 
loop_ 
_atom_site_label 
_atom_site_type_symbol 
_atom_site_fract_x 
_atom_site_fract_y 
_atom_site_fract_z 
_atom_site_charge 
C1          C  0.30123743  0.11238865  0.01557605     0.06300
C2          C  0.32693242  0.14816649  0.01190826    -0.09900
C3          C  0.37540555  0.16629999  0.00789430     0.03800
C4          C  0.39802812  0.14855995  0.00737023    -0.08400
C5          C  0.37218439  0.11278771  0.01098981     0.06300
C6          C  0.32384168  0.09473551  0.01493544    -0.07800
H7          H  0.30960729  0.16203693  0.01307931     0.11900
H8          H  0.43575786  0.16276185  0.00519483     0.09400
H9          H  0.30405429  0.06716489  0.01833537     0.09200
C10         C  0.31220656  0.11351439  0.26979428     0.06300
C11         C  0.33687573  0.14948236  0.26734051    -0.09900
C12         C  0.38565269  0.16901329  0.26464012     0.04000
C13         C  0.40994663  0.15246068  0.26432967    -0.08400
C14         C  0.38527644  0.11632171  0.26669918     0.06300
C15         C  0.33634772  0.09691415  0.26934094    -0.07800
H16         H  0.31830063  0.16242842  0.26821587     0.11900
H17         H  0.44791028  0.16775204  0.26297962     0.09400
H18         H  0.31725556  0.06910316  0.27166304     0.09200
C19         C  0.22303714  0.24041118  0.06313584     0.06300
C20         C  0.19594871  0.20497422  0.06818680    -0.09900
C21         C  0.14727327  0.18779407  0.07113181     0.03800
C22         C  0.12573757  0.20609158  0.06918562    -0.08400
C23         C  0.15256028  0.24142626  0.06400053     0.06300
C24         C  0.20122457  0.25857084  0.06101796    -0.07800
H25         H  0.21243046  0.19060602  0.06902204     0.11900
H26         H  0.08795074  0.19259255  0.07082577     0.09400
H27         H  0.22191676  0.28580414  0.05651896     0.09200
C28         C  0.22151532  0.24359216  0.31672755     0.06300
C29         C  0.19483356  0.20750169  0.31887741    -0.09900
C30         C  0.14596784  0.18933360  0.32086876     0.03800
C31         C  0.12364419  0.20723650  0.32077332    -0.08400
C32         C  0.15031030  0.24340658  0.31866897     0.06300
C33         C  0.19925567  0.26155365  0.31662724    -0.07800
H34         H  0.21188952  0.19344713  0.31836437     0.11900
H35         H  0.08566536  0.19299303  0.32179618     0.09400
H36         H  0.21984471  0.28945095  0.31448575     0.09200
C37         C  0.16175802  0.05411759  0.03108715     0.79600
Tb38       Tb  0.44922327  0.00852822  0.03876923     1.80700
O39         O  0.14430434  0.05872304  0.05907266    -0.48400
O40         O  0.07922510  0.30858513  0.07430441    -0.55900
C41         C  0.06403993  0.08078439  0.06469522     0.95400
O42         O  0.44020911  0.05523523  0.05584036    -0.55400
Tb43       Tb  0.06565789  0.00959557  0.03943880     1.78100
O44         O  0.37189361  0.30514481  0.01412736    -0.55900
O45         O  0.99324555  0.28829875  0.01179895    -0.74700
O46         O  0.07694285  0.06489259  0.04280768    -0.74000
O47         O  0.04593727  0.01382164  0.48580445    -0.59300
C48         C  0.45824654  0.27368056  0.01865008     0.95000
O49         O  0.48184678  0.02425983  0.09932760    -0.71200
C50         C  0.35298865  0.96476569  0.04619836     0.78500
C51         C  0.09360190  0.29616289  0.04967655     0.79400
O52         O  0.13197507  0.02759873  0.00746129    -0.56500
O53         O  0.09245690  0.30480965  0.01906283    -0.48400
O54         O  0.47742097  0.01749563  0.48863267    -0.74500
O55         O  0.05156251  0.01267143  0.10080547    -0.58500
C56         C  0.02428076  0.01560629  0.12141284     0.93200
C57         C  0.00971793  0.01192996  0.47303021     0.94500
C58         C  0.43890058  0.06652454  0.55318892     0.78800
O59         O  0.38374386  0.98748823  0.07219134    -0.47800
O60         O  0.43577620  0.37377719  0.50514614    -0.49000
O61         O  0.44998386  0.29182930  0.00116772    -0.61800
O62         O  0.02623455  0.06454692  0.07976521    -0.63000
C63         C  0.17110268  0.05678950  0.28169777     0.79600
Tb64       Tb  0.46477911  0.01174576  0.28998132     1.80700
O65         O  0.15392399  0.06173036  0.30972847    -0.48400
O66         O  0.10211817  0.32571435  0.33509562    -0.55900
C67         C  0.07129936  0.08237250  0.31323360     0.95400
O68         O  0.44281613  0.05129654  0.30848025    -0.55400
Tb69       Tb  0.07489285  0.01285011  0.29046150     1.78100
O70         O  0.37007517  0.30807316  0.26863893    -0.55900
O71         O  0.99491020  0.29374807  0.28078952    -0.74700
O72         O  0.08461007  0.06727819  0.29073167    -0.74000
O73         O  0.04028583  0.00904300  0.23372464    -0.59300
C74         C  0.45685138  0.27625517  0.27583226     0.95000
O75         O  0.49195566  0.01580017  0.35101624    -0.71200
C76         C  0.36850174  0.96536499  0.29924453     0.78500
C77         C  0.09407630  0.30067985  0.31063250     0.79400
O78         O  0.14071345  0.03090184  0.25774369    -0.56500
O79         O  0.07224185  0.29799841  0.28129331    -0.48400
O80         O  0.48717250  0.00738241  0.23054014    -0.74500
O81         O  0.06093373  0.01699172  0.35255486    -0.58500
C82         C  0.02873631  0.01366058  0.37199204     0.93200
C83         C  0.00953255  0.01444111  0.22311876     0.94500
C84         C  0.44286527  0.06035955  0.27799422     0.78800
O85         O  0.40205403  0.97475521  0.32313768    -0.47800
O86         O  0.41040771  0.36027676  0.24932986    -0.49000
O87         O  0.44586051  0.29232587  0.25726273    -0.61800
O88         O  0.03612225  0.06512662  0.33051870    -0.63000
C89         C  0.03529625  0.01388474  0.41132839    -0.13300
C90         C  0.00263124  0.01028135  0.43344383    -0.28500
H91         H  0.47394792  0.35595711  0.41731898     0.15700
H92         H  0.97043632  0.00709192  0.42248178     0.16300
C93         C  0.03232799  0.01612600  0.16063085    -0.13300
C94         C  0.00316949  0.01603796  0.18431934    -0.28500
H95         H  0.46329475  0.34501469  0.16125658     0.15700
H96         H  0.97359681  0.01703544  0.17504249     0.16300
C97         C  0.11856414  0.15187189  0.32097293    -0.10100
C98         C  0.09666061  0.12019040  0.31878457    -0.11700
C99         C  0.31250134  0.27777661  0.30790971    -0.10100
C100        C  0.27130226  0.26180388  0.31291739    -0.11700
C101        C  0.11050445  0.27855443  0.31503432    -0.10100
C102        C  0.12744954  0.26177501  0.31733542    -0.11700
C103        C  0.11845435  0.15058878  0.07314528    -0.10100
C104        C  0.09324692  0.11886068  0.07143495    -0.11700
C105        C  0.27268817  0.25776912  0.05842833    -0.10100
C106        C  0.31385233  0.27363123  0.05297677    -0.11700
C107        C  0.12975181  0.25961044  0.06022196    -0.10100
C108        C  0.11175014  0.27542115  0.05602654    -0.11700
C109        C  0.41004930  0.09926024  0.26835533    -0.10100
C110        C  0.42739054  0.08281496  0.27166173    -0.11700
C111        C  0.41088834  0.20655433  0.26475435    -0.10100
C112        C  0.43124897  0.23829065  0.26787578    -0.11700
C113        C  0.22076293  0.07773461  0.27770650    -0.10100
C114        C  0.26239949  0.09404165  0.27396952    -0.11700
C115        C  0.42414043  0.09020591  0.55401985    -0.10100
C116        C  0.40814295  0.10785063  0.55472615    -0.11700
C117        C  0.42741314  0.23568644  0.01068717    -0.10100
C118        C  0.40288325  0.20381735  0.00760771    -0.11700
C119        C  0.25211102  0.09385205  0.02146872    -0.10100
C120        C  0.21094953  0.07658200  0.02642766    -0.11700
C121        C  0.31511362  0.12687703  0.55812267     0.06300
C122        C  0.34148687  0.16267779  0.55477034    -0.09900
C123        C  0.39003145  0.18046285  0.55159548     0.03800
C124        C  0.41231652  0.16255789  0.55195636    -0.08400
C125        C  0.38588640  0.12671966  0.55529529     0.06300
C126        C  0.33727378  0.10888904  0.55838437    -0.07800
H127        H  0.32421820  0.17650624  0.55418025     0.11900
H128        H  0.44991328  0.17636016  0.54935905     0.09400
H129        H  0.31662753  0.08098301  0.56052160     0.09200
C130        C  0.31611808  0.12461483  0.77802311     0.06300
C131        C  0.34180480  0.16093622  0.77674785    -0.09900
C132        C  0.39096914  0.18028807  0.77546496     0.04000
C133        C  0.41451674  0.16321083  0.77535558    -0.08400
C134        C  0.38887361  0.12680878  0.77647929     0.06300
C135        C  0.33967201  0.10757888  0.77771444    -0.07800
H136        H  0.32371479  0.17423092  0.77735022     0.11900
H137        H  0.45265500  0.17827567  0.77500242     0.09400
H138        H  0.31987746  0.07953107  0.77912554     0.09200
C139        C  0.23365294  0.24837476  0.57296254     0.06300
C140        C  0.20641294  0.21153094  0.57109412    -0.09900
C141        C  0.15735898  0.19308394  0.57236653     0.03800
C142        C  0.13548770  0.21137603  0.57549496    -0.08400
C143        C  0.16266294  0.24818274  0.57725643     0.06300
C144        C  0.21174792  0.26666679  0.57602916    -0.07800
H145        H  0.22316517  0.19723892  0.56813762     0.11900
H146        H  0.09738665  0.19694883  0.57589678     0.09400
H147        H  0.23272799  0.29513468  0.57680929     0.09200
C148        C  0.22563636  0.25133768  0.82085305     0.06300
C149        C  0.19918588  0.21555170  0.82438579    -0.09900
C150        C  0.15053188  0.19774655  0.82738493     0.03800
C151        C  0.12835730  0.21570141  0.82707923    -0.08400
C152        C  0.15490501  0.25151595  0.82375346     0.06300
C153        C  0.20349585  0.26932516  0.82064542    -0.07800
H154        H  0.21613637  0.20143637  0.82400894     0.11900
H155        H  0.09053455  0.20172760  0.82876107     0.09400
H156        H  0.22389617  0.29698675  0.81757274     0.09200
C157        C  0.17177706  0.06576894  0.55310426     0.79600
Tb158      Tb  0.46176250  0.01699681  0.54989822     1.80700
O159        O  0.14580188  0.06323663  0.57782303    -0.48400
O160        O  0.11623641  0.33175469  0.59503518    -0.55900
C161        C  0.07307624  0.08552006  0.55945528     0.95400
O162        O  0.43134982  0.04811418  0.57769304    -0.55400
Tb163      Tb  0.07409594  0.01565748  0.54352446     1.78100
O164        O  0.38422478  0.31135469  0.52635045    -0.55900
O165        O  0.00284826  0.29516123  0.55596708    -0.74700
O166        O  0.07942188  0.06711517  0.53494591    -0.74000
O167        O  0.03487109  0.00982184  0.98366829    -0.59300
C168        C  0.47049829  0.28479653  0.54325392     0.95000
O169        O  0.49023546  0.01691992  0.60691278    -0.71200
C170        C  0.36402497  0.96734892  0.54102533     0.78500
C171        C  0.10496460  0.30467430  0.57224085     0.79400
O172        O  0.14952190  0.04410069  0.52371854    -0.56500
O173        O  0.07876333  0.29915101  0.54415029    -0.48400
O174        O  0.46334640  0.99011930  0.98201457    -0.74500
O175        O  0.05775982  0.01791605  0.60425923    -0.58500
C176        C  0.03198201  0.02333802  0.62426793     0.93200
C177        C  0.00233447  0.01301792  0.97247655     0.94500
C178        C  0.42547210  0.05490045  0.02424444     0.78800
O179        O  0.38668722  0.98926046  0.57019405    -0.47800
O180        O  0.41329957  0.35760319  0.99301402    -0.49000
O181        O  0.45748189  0.29795300  0.52205762    -0.61800
O182        O  0.03907880  0.07121418  0.57847594    -0.63000
C183        C  0.17406471  0.06614426  0.78726421     0.79600
Tb184      Tb  0.46441934  0.02097632  0.80277752     1.80700
O185        O  0.15570685  0.07056070  0.81475655    -0.48400
O186        O  0.09485309  0.32630432  0.84276398    -0.55900
C187        C  0.07245663  0.09079777  0.81846772     0.95400
O188        O  0.43544573  0.05620302  0.81826418    -0.55400
Tb189      Tb  0.07724211  0.02116757  0.79421744     1.78100
O190        O  0.37969813  0.31796924  0.77651250    -0.55900
O191        O  0.00311810  0.30311472  0.81210152    -0.74700
O192        O  0.08683812  0.07586280  0.79681135    -0.74000
O193        O  0.04577818  0.01891819  0.73701698    -0.59300
C194        C  0.46506511  0.28767478  0.78184063     0.95000
O195        O  0.49619532  0.02120937  0.85919756    -0.71200
C196        C  0.36759537  0.97503876  0.80853254     0.78500
C197        C  0.10005270  0.30935651  0.81586215     0.79400
O198        O  0.14461510  0.04002233  0.76311280    -0.56500
O199        O  0.09192148  0.31500610  0.78516898    -0.48400
O200        O  0.47745557  0.01612130  0.74068152    -0.74500
O201        O  0.05755047  0.02180362  0.85453237    -0.58500
C202        C  0.02830052  0.02335995  0.87399851     0.93200
C203        C  0.01216140  0.02054402  0.72466887     0.94500
C204        C  0.44388663  0.06963629  0.78960992     0.78800
O205        O  0.39642976  0.00073071  0.83334090    -0.47800
O206        O  0.42447208  0.38508310  0.78270260    -0.49000
O207        O  0.45400021  0.30435104  0.80455614    -0.61800
O208        O  0.03480279  0.07364076  0.83330899    -0.63000
C209        C  0.03254702  0.02155272  0.91285521    -0.13300
C210        C  0.99856879  0.01645775  0.93406591    -0.28500
H211        H  0.50192897  0.37274692  0.92024389     0.15700
H212        H  0.96767673  0.01509076  0.92317990     0.16300
C213        C  0.03836931  0.02366793  0.66350202    -0.13300
C214        C  0.00680589  0.02162709  0.68567618    -0.28500
H215        H  0.56956931  0.37380695  0.67414789     0.15700
H216        H  0.97627539  0.02086575  0.67502897     0.16300
C217        C  0.12273915  0.16041884  0.82802151    -0.10100
C218        C  0.09948251  0.12867893  0.82543528    -0.11700
C219        C  0.31648450  0.28634769  0.81165941    -0.10100
C220        C  0.27511862  0.26947150  0.81612067    -0.11700
C221        C  0.11575370  0.28685074  0.81979073    -0.10100
C222        C  0.13224269  0.26986166  0.82217154    -0.11700
C223        C  0.12901500  0.15517911  0.56893239    -0.10100
C224        C  0.10404768  0.12333714  0.56499050    -0.11700
C225        C  0.28369257  0.26734645  0.56995738    -0.10100
C226        C  0.32514203  0.28445336  0.56570096    -0.11700
C227        C  0.13998527  0.26679683  0.57820327    -0.10100
C228        C  0.12256435  0.28333366  0.57677267    -0.11700
C229        C  0.41293462  0.10929642  0.77845744    -0.10100
C230        C  0.42960935  0.09252124  0.78230034    -0.11700
C231        C  0.41736882  0.21798325  0.77592690    -0.10100
C232        C  0.43901216  0.24971575  0.77776751    -0.11700
C233        C  0.22397211  0.08805192  0.78397845    -0.10100
C234        C  0.26589152  0.10506170  0.78099202    -0.11700
C235        C  0.41101752  0.07757368  0.01728287    -0.10100
C236        C  0.39532543  0.09483603  0.01321048    -0.11700
C237        C  0.44047271  0.24783298  0.54480078    -0.10100
C238        C  0.41692662  0.21702281  0.54757333    -0.11700
C239        C  0.26483230  0.10798550  0.55930858    -0.10100
C240        C  0.22227557  0.09010924  0.55792201    -0.11700
C241        C  0.29879366  0.44458702  0.00696209     0.06300
C242        C  0.32709559  0.48111827  0.00618736    -0.09900
C243        C  0.37601536  0.49840024  0.00396295     0.03800
C244        C  0.39644365  0.47904446  0.00247955    -0.08400
C245        C  0.36826152  0.44258619  0.00326472     0.06300
C246        C  0.31948375  0.42543055  0.00534438    -0.07800
H247        H  0.31137866  0.49614880  0.00815968     0.11900
H248        H  0.43435905  0.49249062  0.00165969     0.09400
H249        H  0.29782613  0.39733388  0.00661902     0.09200
C250        C  0.29958426  0.44869122  0.26675976     0.06300
C251        C  0.32844997  0.48563314  0.26936377    -0.09900
C252        C  0.37755264  0.50302266  0.26894477     0.04000
C253        C  0.39772397  0.48353230  0.26602963    -0.08400
C254        C  0.36887012  0.44665147  0.26347265     0.06300
C255        C  0.31979405  0.42921649  0.26366898    -0.07800
H256        H  0.31294590  0.50080685  0.27240012     0.11900
H257        H  0.43584110  0.49709717  0.26648027     0.09400
H258        H  0.29755525  0.40068825  0.26243902     0.09200
C259        C  0.21874955  0.56981579  0.06634214     0.06300
C260        C  0.19227186  0.53429746  0.07109706    -0.09900
C261        C  0.14377731  0.51692988  0.07489698     0.03800
C262        C  0.12183056  0.53498432  0.07382400    -0.08400
C263        C  0.14826387  0.57037099  0.06898354     0.06300
C264        C  0.19668748  0.58780565  0.06540121    -0.07800
H265        H  0.20909287  0.52012670  0.07129264     0.11900
H266        H  0.08412568  0.52132175  0.07594283     0.09400
H267        H  0.21702330  0.61518987  0.06135112     0.09200
C268        C  0.22003784  0.56944162  0.28190389     0.06300
C269        C  0.19310331  0.53417626  0.28727285    -0.09900
C270        C  0.14427987  0.51673307  0.28911928     0.03800
C271        C  0.12221348  0.53443345  0.28530976    -0.08400
C272        C  0.14901969  0.56968505  0.27977774     0.06300
C273        C  0.19798636  0.58719190  0.27817090    -0.07800
H274        H  0.21015093  0.52048927  0.29041182     0.11900
H275        H  0.08440991  0.52089623  0.28684970     0.09400
H276        H  0.21895495  0.61466066  0.27443948     0.09200
C277        C  0.15912922  0.38709809  0.02328540     0.79600
Tb278      Tb  0.45472716  0.34246281  0.02950680     1.80700
O279        O  0.14330652  0.39287680  0.05175041    -0.48400
O280        O  0.09391020  0.64878628  0.08028157    -0.55900
C281        C  0.06267224  0.41016821  0.06732799     0.95400
O282        O  0.45087688  0.39234021  0.04278456    -0.55400
Tb283      Tb  0.06543773  0.34090915  0.03781518     1.78100
O284        O  0.37907778  0.62505456  0.02808994    -0.55900
O285        O  0.99446778  0.62175277  0.05262194    -0.74700
O286        O  0.07383219  0.39521255  0.04260160    -0.74000
O287        O  0.05977973  0.34599971  0.49706264    -0.59300
C288        C  0.46070850  0.60652634  0.02063447     0.95000
O289        O  0.47068116  0.34358954  0.09188208    -0.71200
C290        C  0.36194174  0.29516134  0.04458438     0.78500
C291        C  0.09215619  0.62654525  0.05525817     0.79400
O292        O  0.12863354  0.35884998  0.00184843    -0.56500
O293        O  0.07656912  0.62615901  0.02392764    -0.48400
O294        O  0.48992990  0.34941569  0.48347708    -0.74500
O295        O  0.05491402  0.34303822  0.10081938    -0.58500
C296        C  0.02630147  0.34322551  0.12220987     0.93200
C297        C  0.03324888  0.34965961  0.47606715     0.94500
C298        C  0.43770876  0.39614115  0.53002266     0.78800
O299        O  0.39794073  0.30729442  0.06727395    -0.47800
O300        O  0.46056299  0.72016427  0.51439716    -0.49000
O301        O  0.44827327  0.62072431  0.04512713    -0.61800
O302        O  0.02688416  0.39282523  0.08410309    -0.63000
C303        C  0.16088503  0.39263221  0.28336862     0.79600
Tb304      Tb  0.45277337  0.34455816  0.28339811     1.80700
O305        O  0.15127475  0.38492146  0.31463418    -0.48400
O306        O  0.07521604  0.63389910  0.30361112    -0.55900
C307        C  0.06208649  0.41318107  0.30067651     0.95400
O308        O  0.45223120  0.39569302  0.29788222    -0.55400
Tb309      Tb  0.06843912  0.34730688  0.29996259     1.78100
O310        O  0.39037096  0.63250184  0.26470635    -0.55900
O311        O  0.99422392  0.62385814  0.26000141    -0.74700
O312        O  0.07457048  0.39986097  0.32209337    -0.74000
O313        O  0.04403053  0.34658918  0.23978595    -0.59300
C314        C  0.46586095  0.61075860  0.28390368     0.95000
O315        O  0.47367551  0.34938373  0.34615298    -0.71200
C316        C  0.36037560  0.29886944  0.29941638     0.78500
C317        C  0.09297722  0.62780413  0.27660149     0.79400
O318        O  0.12487639  0.37862777  0.26028632    -0.56500
O319        O  0.09693119  0.64477081  0.25135763    -0.48400
O320        O  0.47739903  0.33964971  0.22642489    -0.74500
O321        O  0.04651477  0.35000518  0.35951825    -0.58500
C322        C  0.01834403  0.35621714  0.37505499     0.93200
C323        C  0.00471341  0.33718913  0.22290294     0.94500
C324        C  0.42376994  0.38863027  0.27068520     0.78800
O325        O  0.39639092  0.31114724  0.32214014    -0.47800
O326        O  0.45375942  0.72078305  0.27614108    -0.49000
O327        O  0.45905059  0.62883250  0.30848319    -0.61800
O328        O  0.02312536  0.39423470  0.28011910    -0.63000
C329        C  0.01784838  0.35891718  0.41506736    -0.13300
C330        C  0.04041999  0.35018114  0.43685211    -0.28500
H331        H  0.57143297  0.69430379  0.42153775     0.15700
H332        H  0.06338264  0.34273759  0.42571786     0.16300
C333        C  0.03440949  0.34327881  0.16159712    -0.13300
C334        C  0.99919262  0.33415694  0.18280388    -0.28500
H335        H  0.56065340  0.67492846  0.16696749     0.15700
H336        H  0.96443377  0.32558680  0.17037604     0.16300
C337        C  0.11677640  0.48063655  0.29496064    -0.10100
C338        C  0.09272475  0.45007371  0.29873675    -0.11700
C339        C  0.31336267  0.60518843  0.28413498    -0.10100
C340        C  0.27064644  0.58796862  0.28198491    -0.11700
C341        C  0.10966690  0.60519148  0.27569745    -0.10100
C342        C  0.12665380  0.58828091  0.27685156    -0.11700
C343        C  0.11553973  0.47984045  0.07702991    -0.10100
C344        C  0.09092222  0.44813085  0.07509590    -0.11700
C345        C  0.26836867  0.58798433  0.06180136    -0.10100
C346        C  0.31008562  0.60539787  0.05834019    -0.11700
C347        C  0.12544764  0.58844446  0.06584200    -0.10100
C348        C  0.10850951  0.60485643  0.06159313    -0.11700
C349        C  0.38988694  0.42695883  0.26327474    -0.10100
C350        C  0.40645264  0.40996805  0.26547594    -0.11700
C351        C  0.40773465  0.54102100  0.27309877    -0.10100
C352        C  0.43414783  0.57287118  0.27751520    -0.11700
C353        C  0.20857629  0.41427316  0.27485614    -0.10100
C354        C  0.24975085  0.43082545  0.26990712    -0.11700
C355        C  0.41911279  0.41669273  0.52446153    -0.10100
C356        C  0.40111889  0.43278170  0.52235146    -0.11700
C357        C  0.43170594  0.56843910  0.01070046    -0.10100
C358        C  0.40603397  0.53641015  0.00602730    -0.11700
C359        C  0.24905257  0.42675777  0.01148660    -0.10100
C360        C  0.20773767  0.40971500  0.01648352    -0.11700
C361        C  0.30937481  0.45329139  0.52967466     0.06300
C362        C  0.33675755  0.48956553  0.52791900    -0.09900
C363        C  0.38507332  0.50685518  0.52355204     0.03800
C364        C  0.40598445  0.48787033  0.52085033    -0.08400
C365        C  0.37880491  0.45167434  0.52271401     0.06300
C366        C  0.33049907  0.43439575  0.52709907    -0.07800
H367        H  0.32073162  0.50438250  0.53047886     0.11900
H368        H  0.44352481  0.50139675  0.51809742     0.09400
H369        H  0.30958150  0.40645566  0.52905414     0.09200
C370        C  0.31617309  0.46881791  0.82298941     0.06300
C371        C  0.34258979  0.50382094  0.81668418    -0.09900
C372        C  0.39102734  0.52087778  0.81309197     0.04000
C373        C  0.41299894  0.50299522  0.81587152    -0.08400
C374        C  0.38656191  0.46803329  0.82214890     0.06300
C375        C  0.33819918  0.45098532  0.82577105    -0.07800
H376        H  0.32543278  0.51749336  0.81402751     0.11900
H377        H  0.45032332  0.51603007  0.81254642     0.09400
H378        H  0.31749293  0.42361023  0.82984499     0.09200
C379        C  0.22888290  0.58131809  0.57356004     0.06300
C380        C  0.20344500  0.54532960  0.57632237    -0.09900
C381        C  0.15429313  0.52607356  0.57752723     0.03800
C382        C  0.13050142  0.54280835  0.57596790    -0.08400
C383        C  0.15579290  0.57877672  0.57310124     0.06300
C384        C  0.20501987  0.59800474  0.57198005    -0.07800
H385        H  0.22168070  0.53221485  0.57691025     0.11900
H386        H  0.09233508  0.52771503  0.57619438     0.09400
H387        H  0.22459951  0.62574928  0.56930751     0.09200
C388        C  0.23301078  0.58136668  0.82384312     0.06300
C389        C  0.20358448  0.54477110  0.82333550    -0.09900
C390        C  0.15454016  0.52809426  0.82304082     0.03800
C391        C  0.13493454  0.54787340  0.82351015    -0.08400
C392        C  0.16429599  0.58438503  0.82383831     0.06300
C393        C  0.21333506  0.60114812  0.82400437    -0.07800
H394        H  0.21859916  0.52927538  0.82241297     0.11900
H395        H  0.09684939  0.53475719  0.82275755     0.09400
H396        H  0.23602731  0.62939847  0.82368734     0.09200
C397        C  0.17035941  0.39704306  0.54785117     0.79600
Tb398      Tb  0.46654140  0.35179771  0.54276853     1.80700
O399        O  0.15925901  0.38518603  0.57733976    -0.48400
O400        O  0.07862872  0.64373687  0.57914965    -0.55900
C401        C  0.07529494  0.41870729  0.56794976     0.95400
O402        O  0.45539401  0.39753312  0.56082456    -0.55400
Tb403      Tb  0.07671380  0.34947114  0.56051592     1.78100
O404        O  0.38841137  0.63334941  0.53722636    -0.55900
O405        O  0.99996331  0.62966970  0.51853543    -0.74700
O406        O  0.08381239  0.40156660  0.58687830    -0.74000
O407        O  0.02742801  0.33805710  0.98300875    -0.59300
C408        C  0.46669616  0.61434865  0.53201809     0.95000
O409        O  0.49156776  0.35225645  0.60285703    -0.71200
C410        C  0.37333768  0.30635464  0.55813762     0.78500
C411        C  0.09670501  0.63280236  0.55672629     0.79400
O412        O  0.13513940  0.38641246  0.52493833    -0.56500
O413        O  0.10157829  0.64416855  0.52712983    -0.48400
O414        O  0.48921269  0.34360827  0.97558516    -0.74500
O415        O  0.04755951  0.35299375  0.61621970    -0.58500
C416        C  0.01110337  0.35177447  0.62568647     0.93200
C417        C  0.99064928  0.33669595  0.97228542     0.94500
C418        C  0.42420699  0.38536865  0.01437007     0.78800
O419        O  0.40850769  0.32319971  0.58247508    -0.47800
O420        O  0.45493205  0.71378419  0.01511891    -0.49000
O421        O  0.45502269  0.63066479  0.55447547    -0.61800
O422        O  0.04210962  0.40305804  0.54177700    -0.63000
C423        C  0.17276057  0.40712104  0.81794580     0.79600
Tb424      Tb  0.46078835  0.35720370  0.79880051     1.80700
O425        O  0.14672795  0.40377273  0.84282319    -0.48400
O426        O  0.12161251  0.66994046  0.83866948    -0.55900
C427        C  0.06524040  0.42091132  0.80891844     0.95400
O428        O  0.46183988  0.40353677  0.83582457    -0.55400
Tb429      Tb  0.07501041  0.35637596  0.80817624     1.78100
O430        O  0.38629866  0.64128501  0.78155887    -0.55900
O431        O  0.00762912  0.63280816  0.80415354    -0.74700
O432        O  0.07579187  0.40262389  0.78844606    -0.74000
O433        O  0.04849707  0.34321365  0.74643706    -0.59300
C434        C  0.47492871  0.62256117  0.79569354     0.95000
O435        O  0.51042377  0.37895014  0.85356706    -0.71200
C436        C  0.36560348  0.30902242  0.80679027     0.78500
C437        C  0.11035072  0.64307379  0.81549278     0.79400
O438        O  0.15054348  0.38588968  0.78837015    -0.56500
O439        O  0.08371429  0.63757049  0.78770708    -0.48400
O440        O  0.46794074  0.34575305  0.73665791    -0.74500
O441        O  0.05528183  0.37400217  0.86233006    -0.58500
C442        C  0.01612217  0.35612064  0.87510092     0.93200
C443        C  0.02055973  0.34681248  0.72753290     0.94500
C444        C  0.43700713  0.40620638  0.81261564     0.78800
O445        O  0.39852892  0.32301473  0.83279067    -0.47800
O446        O  0.45813587  0.72425001  0.76559527    -0.49000
O447        O  0.46075329  0.63600422  0.77593739    -0.61800
O448        O  0.02725233  0.40642166  0.82373247    -0.63000
C449        C  0.01923158  0.35273615  0.91375420    -0.13300
C450        C  0.98235258  0.33750392  0.93326287    -0.28500
H451        H  0.57240685  0.69734641  0.92345844     0.15700
H452        H  0.94694997  0.32781532  0.92130061     0.16300
C453        C  0.00242080  0.35181953  0.66448319    -0.13300
C454        C  0.02557109  0.34533808  0.68817188    -0.28500
H455        H  0.56404343  0.67932835  0.66877132     0.15700
H456        H  0.05097786  0.33978002  0.67855621     0.16300
C457        C  0.12376086  0.49035233  0.81987491    -0.10100
C458        C  0.09693625  0.45862597  0.81541346    -0.11700
C459        C  0.32482931  0.61529878  0.81914996    -0.10100
C460        C  0.28307931  0.59858879  0.82226173    -0.11700
C461        C  0.12760707  0.62150771  0.81975185    -0.10100
C462        C  0.14387914  0.60435333  0.82226318    -0.11700
C463        C  0.12777484  0.48857605  0.57782502    -0.10100
C464        C  0.10456285  0.45674922  0.57515482    -0.11700
C465        C  0.27918992  0.60089276  0.57108273    -0.10100
C466        C  0.32110477  0.61812182  0.56817669    -0.11700
C467        C  0.13113767  0.59563179  0.56940411    -0.10100
C468        C  0.11302579  0.61124891  0.56454999    -0.11700
C469        C  0.40802321  0.44866170  0.82217856    -0.10100
C470        C  0.42317256  0.43041775  0.81941950    -0.11700
C471        C  0.41829172  0.55651014  0.80586140    -0.10100
C472        C  0.44312737  0.58650442  0.80040347    -0.11700
C473        C  0.22324963  0.43189960  0.82274936    -0.10100
C474        C  0.26584139  0.45014320  0.82414991    -0.11700
C475        C  0.40636788  0.40627213  0.00781360    -0.10100
C476        C  0.38970261  0.42313836  0.00450830    -0.11700
C477        C  0.43835231  0.57630556  0.52625612    -0.10100
C478        C  0.41389353  0.54449590  0.52388482    -0.11700
C479        C  0.25999363  0.43555959  0.53526338    -0.10100
C480        C  0.21881706  0.41917629  0.54060950    -0.11700
C481        C  0.30548951  0.77612552  0.02859870     0.06300
C482        C  0.33037800  0.81255139  0.02816134    -0.09900
C483        C  0.37950801  0.83246465  0.02683655     0.03800
C484        C  0.40390616  0.81608515  0.02619189    -0.08400
C485        C  0.37910388  0.77970887  0.02676752     0.06300
C486        C  0.32988911  0.75973261  0.02787575    -0.07800
H487        H  0.31164661  0.82537251  0.02900046     0.11900
H488        H  0.44203427  0.83163613  0.02567036     0.09400
H489        H  0.31071399  0.73158107  0.02860729     0.09200
C490        C  0.31024414  0.78641326  0.29662320     0.06300
C491        C  0.33807180  0.82242542  0.29400350    -0.09900
C492        C  0.38734602  0.84024331  0.29480967     0.04000
C493        C  0.40881855  0.82208545  0.29821491    -0.08400
C494        C  0.38101714  0.78605907  0.30080539     0.06300
C495        C  0.33173031  0.76826342  0.30013417    -0.07800
H496        H  0.32144881  0.83644399  0.29108508     0.11900
H497        H  0.44694344  0.83585975  0.29853744     0.09400
H498        H  0.31009120  0.74025737  0.30181194     0.09200
C499        C  0.21179745  0.90505830  0.05636855     0.06300
C500        C  0.18690093  0.86863570  0.05662538    -0.09900
C501        C  0.13785850  0.84881592  0.05816709     0.03800
C502        C  0.11366480  0.86539889  0.05967701    -0.08400
C503        C  0.13863777  0.90187988  0.05955991     0.06300
C504        C  0.18770363  0.92167651  0.05790349    -0.07800
H505        H  0.20546359  0.85566983  0.05504059     0.11900
H506        H  0.07556924  0.84991747  0.06034041     0.09400
H507        H  0.20697178  0.94984841  0.05723877     0.09200
C508        C  0.22677825  0.90892241  0.31048271     0.06300
C509        C  0.19910782  0.87231320  0.31068014    -0.09900
C510        C  0.14998912  0.85426250  0.31194019     0.03800
C511        C  0.12847961  0.87279709  0.31294639    -0.08400
C512        C  0.15584903  0.90931076  0.31263734     0.06300
C513        C  0.20502914  0.92737672  0.31151852    -0.07800
H514        H  0.21561869  0.85784565  0.30939106     0.11900
H515        H  0.09040394  0.85871545  0.31332257     0.09400
H516        H  0.22617472  0.95558062  0.31081761     0.09200
C517        C  0.16303024  0.71624778  0.03540314     0.79600
Tb518      Tb  0.45663554  0.67511154  0.04974835     1.80700
O519        O  0.14579721  0.71768053  0.06475806    -0.48400
O520        O  0.06606627  0.97014312  0.07369864    -0.55900
C521        C  0.06254246  0.74173201  0.05073715     0.95400
O522        O  0.42861777  0.71067576  0.06659063    -0.55400
Tb523      Tb  0.06639307  0.67221022  0.04232550     1.78100
O524        O  0.36965484  0.96343545  0.01649969    -0.55900
O525        O  0.99333098  0.95996024  0.00974311    -0.74700
O526        O  0.07497823  0.72424577  0.03092521    -0.74000
O527        O  0.04677495  0.67807913  0.48237681    -0.59300
C528        C  0.45402406  0.93917319  0.03114497     0.95000
O529        O  0.48905667  0.67631872  0.10622980    -0.71200
C530        C  0.35984279  0.62851856  0.05541271     0.78500
C531        C  0.08371185  0.95928330  0.05052322     0.79400
O532        O  0.13250968  0.69350008  0.00923969    -0.56500
O533        O  0.09086638  0.97234625  0.02173660    -0.48400
O534        O  0.47760915  0.67813324  0.49056923    -0.74500
O535        O  0.05579584  0.69158252  0.10003202    -0.58500
C536        C  0.01822184  0.68045536  0.11528131     0.93200
C537        C  0.01166591  0.67622403  0.46645423     0.94500
C538        C  0.44231367  0.73149302  0.53638941     0.78800
O539        O  0.38830021  0.65473198  0.07987339    -0.47800
O540        O  0.45882181  0.06116058  0.52738253    -0.49000
O541        O  0.44013276  0.95624914  0.04973079    -0.61800
O542        O  0.02579949  0.72667200  0.06694782    -0.63000
C543        C  0.16611900  0.72650586  0.28799263     0.79600
Tb544      Tb  0.46199311  0.67940774  0.29998826     1.80700
O545        O  0.14154815  0.72453442  0.31364949    -0.48400
O546        O  0.08149330  0.97648455  0.32584068    -0.55900
C547        C  0.06726180  0.74653662  0.30311247     0.95400
O548        O  0.43256889  0.71106192  0.32871032    -0.55400
Tb549      Tb  0.06848965  0.67664420  0.28164858     1.78100
O550        O  0.38245725  0.97787068  0.27052597    -0.55900
O551        O  0.00191140  0.96182277  0.26365954    -0.74700
O552        O  0.07342406  0.72890598  0.27744232    -0.74000
O553        O  0.03496122  0.67690221  0.22687094    -0.59300
C554        C  0.47103309  0.94527182  0.28891704     0.95000
O555        O  0.49212518  0.68213863  0.35758021    -0.71200
C556        C  0.36413507  0.62890399  0.28956867     0.78500
C557        C  0.09819916  0.96532921  0.30202594     0.79400
O558        O  0.14235671  0.70466046  0.25894995    -0.56500
O559        O  0.10109802  0.97624104  0.27222625    -0.48400
O560        O  0.48030964  0.67838393  0.23955492    -0.74500
O561        O  0.05654381  0.67652560  0.34367723    -0.58500
C562        C  0.03145593  0.68085187  0.36561918     0.93200
C563        C  0.99697976  0.67360217  0.21567859     0.94500
C564        C  0.43607645  0.72730233  0.30293132     0.78800
O565        O  0.38636714  0.64928097  0.31963098    -0.47800
O566        O  0.45530463  0.04636144  0.25348431    -0.49000
O567        O  0.45796665  0.95882387  0.26826205    -0.61800
O568        O  0.03515200  0.73123164  0.32359792    -0.63000
C569        C  0.03951194  0.68016280  0.40468168    -0.13300
C570        C  0.00662398  0.67516437  0.42680308    -0.28500
H571        H  0.56426123  0.02354819  0.41918873     0.15700
H572        H  0.97416840  0.67146098  0.41550574     0.16300
C573        C  0.02332298  0.68215811  0.15503921    -0.13300
C574        C  0.98805195  0.67246905  0.17618900    -0.28500
H575        H  0.47836145  0.02248538  0.16789774     0.15700
H576        H  0.95306552  0.66408176  0.16460709     0.16300
C577        C  0.12118740  0.81643296  0.31066853    -0.10100
C578        C  0.09650296  0.78459003  0.30818006    -0.11700
C579        C  0.31903992  0.94376908  0.30451558    -0.10100
C580        C  0.27712998  0.92736239  0.30781841    -0.11700
C581        C  0.11513688  0.94385772  0.30842048    -0.10100
C582        C  0.13305487  0.92780824  0.31145935    -0.11700
C583        C  0.11210628  0.81118628  0.05663474    -0.10100
C584        C  0.09008337  0.77949787  0.05429037    -0.11700
C585        C  0.26177719  0.92523640  0.05324306    -0.10100
C586        C  0.30348445  0.94281672  0.05003828    -0.11700
C587        C  0.11401170  0.91897359  0.05916576    -0.10100
C588        C  0.09722029  0.93579671  0.05662165    -0.11700
C589        C  0.40277723  0.76700129  0.30283719    -0.10100
C590        C  0.41944351  0.74986130  0.30340576    -0.11700
C591        C  0.41594303  0.87713123  0.29187158    -0.10100
C592        C  0.44061734  0.90815388  0.28993248    -0.11700
C593        C  0.21678504  0.75016866  0.29186596    -0.10100
C594        C  0.25948650  0.76766354  0.29450280    -0.11700
C595        C  0.42618582  0.75294669  0.52768360    -0.10100
C596        C  0.40842188  0.76883635  0.52295051    -0.11700
C597        C  0.42711164  0.90146343  0.02817555    -0.10100
C598        C  0.40511901  0.86990750  0.02702011    -0.11700
C599        C  0.25505880  0.75563354  0.03038733    -0.10100
C600        C  0.21293299  0.73800831  0.03233014    -0.11700
C601        C  0.31104174  0.78364313  0.52043237     0.06300
C602        C  0.33692795  0.82013163  0.52000082    -0.09900
C603        C  0.38625354  0.83962236  0.51972372     0.03800
C604        C  0.40977422  0.82255241  0.51969999    -0.08400
C605        C  0.38405204  0.78604881  0.52018268     0.06300
C606        C  0.33464909  0.76663148  0.52045541    -0.07800
H607        H  0.31888011  0.83346041  0.52065063     0.11900
H608        H  0.44804393  0.83776921  0.52019568     0.09400
H609        H  0.31476659  0.73851073  0.52150796     0.09200
C610        C  0.31373284  0.79357591  0.77915857     0.06300
C611        C  0.34252168  0.82954745  0.77624806    -0.09900
C612        C  0.39102383  0.84577380  0.77314710     0.04000
C613        C  0.41075135  0.82602792  0.77306123    -0.08400
C614        C  0.38212982  0.79008670  0.77603302     0.06300
C615        C  0.33362506  0.77389714  0.77897842    -0.07800
H616        H  0.32741700  0.84497326  0.77692699     0.11900
H617        H  0.44840564  0.83875102  0.77137136     0.09400
H618        H  0.31155021  0.74617703  0.78172401     0.09200
C619        C  0.22080121  0.90662016  0.53708084     0.06300
C620        C  0.19476534  0.87072041  0.53984026    -0.09900
C621        C  0.14617279  0.85257047  0.54274181     0.03800
C622        C  0.12339724  0.87010092  0.54271897    -0.08400
C623        C  0.14952572  0.90605690  0.54002913     0.06300
C624        C  0.19825231  0.92434389  0.53723989    -0.07800
H625        H  0.21228261  0.85703683  0.53998923     0.11900
H626        H  0.08566744  0.85589765  0.54492862     0.09400
H627        H  0.21861726  0.95232829  0.53547318     0.09200
C628        C  0.22546684  0.91639541  0.81615034     0.06300
C629        C  0.19985273  0.88045956  0.81897296    -0.09900
C630        C  0.15088108  0.86153314  0.82082180     0.03800
C631        C  0.12745142  0.87863656  0.82011297    -0.08400
C632        C  0.15309790  0.91471619  0.81752568     0.06300
C633        C  0.20208789  0.93349035  0.81542221    -0.07800
H634        H  0.21782892  0.86711391  0.81912053     0.11900
H635        H  0.08942573  0.86384619  0.82105206     0.09400
H636        H  0.22193369  0.96130202  0.81298667     0.09200
C637        C  0.16960091  0.72632776  0.53192172     0.79600
Tb638      Tb  0.46593023  0.68519554  0.55277858     1.80700
O639        O  0.15592865  0.72090894  0.56298605    -0.48400
O640        O  0.08093061  0.97428024  0.56861453    -0.55900
C641        C  0.06786559  0.74747067  0.54576609     0.95400
O642        O  0.43739993  0.72097898  0.56662679    -0.55400
Tb643      Tb  0.07401097  0.68060850  0.54288222     1.78100
O644        O  0.38963215  0.96933333  0.51618278    -0.55900
O645        O  0.99932570  0.96254948  0.52424911    -0.74700
O646        O  0.08160629  0.73359251  0.56528323    -0.74000
O647        O  0.02779719  0.65394830  0.98309605    -0.59300
C648        C  0.46416366  0.94749441  0.53048933     0.95000
O649        O  0.50438598  0.69308853  0.60949731    -0.71200
C650        C  0.37057427  0.64016575  0.56365331     0.78500
C651        C  0.09628830  0.96586036  0.54140020     0.79400
O652        O  0.13603060  0.71020981  0.50628837    -0.56500
O653        O  0.09973600  0.98141039  0.51500316    -0.48400
O654        O  0.47480180  0.67750894  0.98885534    -0.74500
O655        O  0.05326902  0.68512135  0.60310393    -0.58500
C656        C  0.02207790  0.68810077  0.61823739     0.93200
C657        C  0.01019695  0.66755764  0.96716800     0.94500
C658        C  0.43598296  0.72383636  0.03781814     0.78800
O659        O  0.39993721  0.66882128  0.58509103    -0.47800
O660        O  0.42304028  0.03201772  0.99965569    -0.49000
O661        O  0.45574985  0.96449219  0.55513854    -0.61800
O662        O  0.02911946  0.72910291  0.52494124    -0.63000
C663        C  0.17404590  0.73733942  0.79475996     0.79600
Tb664      Tb  0.46625963  0.68785497  0.80017757     1.80700
O665        O  0.16266985  0.72463549  0.82381101    -0.48400
O666        O  0.08402270  0.98549116  0.83066990    -0.55900
C667        C  0.07502544  0.75427057  0.81095333     0.95400
O668        O  0.43229838  0.71972654  0.81676617    -0.55400
Tb669      Tb  0.08047324  0.68715379  0.80549482     1.78100
O670        O  0.38655135  0.97162297  0.78099643    -0.55900
O671        O  0.00506222  0.97036565  0.76609773    -0.74700
O672        O  0.08362520  0.73785714  0.83095051    -0.74000
O673        O  0.06263848  0.68097464  0.74189752    -0.59300
C674        C  0.47155830  0.95298432  0.78052237     0.95000
O675        O  0.49924901  0.69025230  0.85731173    -0.71200
C676        C  0.37336182  0.63828790  0.81306660     0.78500
C677        C  0.09841381  0.97255876  0.80659804     0.79400
O678        O  0.13903435  0.72636982  0.77143329    -0.56500
O679        O  0.10096524  0.98284043  0.77644428    -0.48400
O680        O  0.48462809  0.68711762  0.74010984    -0.74500
O681        O  0.04869888  0.68867094  0.86029324    -0.58500
C682        C  0.01050776  0.68513501  0.86888063     0.93200
C683        C  0.03647849  0.68438680  0.72030433     0.94500
C684        C  0.43737794  0.73250340  0.78805698     0.78800
O685        O  0.40650550  0.65897906  0.83840775    -0.47800
O686        O  0.46401843  0.05997292  0.76773241    -0.49000
O687        O  0.45781426  0.96774999  0.80298485    -0.61800
O688        O  0.04364221  0.73781713  0.78350892    -0.63000
C689        C  0.00001959  0.68250776  0.90718514    -0.13300
C690        C  0.01729083  0.66971189  0.92830451    -0.28500
H691        H  0.57397646  0.03400533  0.92522795     0.15700
H692        H  0.03874875  0.66093495  0.91674991     0.16300
C693        C  0.02049479  0.69065136  0.65810860    -0.13300
C694        C  0.04424361  0.68394191  0.68112046    -0.28500
H695        H  0.56639435  0.02361596  0.66989059     0.15700
H696        H  0.06883920  0.67770817  0.67111536     0.16300
C697        C  0.12441419  0.82405124  0.82107990    -0.10100
C698        C  0.10230068  0.79226422  0.81830494    -0.11700
C699        C  0.31763599  0.95270260  0.81103120    -0.10100
C700        C  0.27561866  0.93563165  0.81337919    -0.11700
C701        C  0.11291633  0.94957272  0.81291912    -0.10100
C702        C  0.12939063  0.93252042  0.81587317    -0.11700
C703        C  0.11966055  0.81585075  0.54555149    -0.10100
C704        C  0.09681297  0.78476102  0.54670460    -0.11700
C705        C  0.27101406  0.92568343  0.53562207    -0.10100
C706        C  0.31350986  0.94335513  0.53659881    -0.11700
C707        C  0.12677045  0.92450423  0.54056001    -0.10100
C708        C  0.11071545  0.94206098  0.54099678    -0.11700
C709        C  0.40297364  0.77029336  0.77797287    -0.10100
C710        C  0.41980264  0.75357127  0.78150370    -0.11700
C711        C  0.42102105  0.88318777  0.77222449    -0.10100
C712        C  0.44520427  0.91496559  0.77413813    -0.11700
C713        C  0.22268244  0.76043674  0.78824858    -0.10100
C714        C  0.26412386  0.77686149  0.78359978    -0.11700
C715        C  0.42148795  0.74662939  0.03117258    -0.10100
C716        C  0.40408662  0.76294227  0.02796132    -0.11700
C717        C  0.43601380  0.90941377  0.52493795    -0.10100
C718        C  0.41305620  0.87750871  0.52166213    -0.11700
C719        C  0.26066502  0.76408566  0.52284384    -0.10100
C720        C  0.21886221  0.74750658  0.52630070    -0.11700
C721        C  0.79658940  0.10938681  0.01771552     0.06300
C722        C  0.82420832  0.14570355  0.01597355    -0.09900
C723        C  0.87344283  0.16365870  0.01535096     0.03800
C724        C  0.89499744  0.14530266  0.01633969    -0.08400
C725        C  0.86760071  0.10910096  0.01808248     0.06300
C726        C  0.81840233  0.09113432  0.01863099    -0.07800
H727        H  0.80768154  0.16010398  0.01604323     0.11900
H728        H  0.93318387  0.15937855  0.01676391     0.09400
H729        H  0.79731884  0.06322365  0.02071569     0.09200
C730        C  0.81983276  0.12545788  0.32256969     0.06300
C731        C  0.84650059  0.16122467  0.31921633    -0.09900
C732        C  0.89528532  0.17907906  0.31713179     0.04000
C733        C  0.91755337  0.16125040  0.31851215    -0.08400
C734        C  0.89078414  0.12541390  0.32195908     0.06300
C735        C  0.84195469  0.10756575  0.32405957    -0.07800
H736        H  0.82918291  0.17490510  0.31741491     0.11900
H737        H  0.95522563  0.17497937  0.31628661     0.09400
H738        H  0.82101827  0.07959169  0.32590073     0.09200
C739        C  0.71850714  0.23883701  0.07475572     0.06300
C740        C  0.69102506  0.20214241  0.07366200    -0.09900
C741        C  0.64171061  0.18375331  0.07268773     0.03800
C742        C  0.61981712  0.20192745  0.07280928    -0.08400
C743        C  0.64728981  0.23857867  0.07363092     0.06300
C744        C  0.69667548  0.25707524  0.07470116    -0.07800
H745        H  0.70782178  0.18789750  0.07296804     0.11900
H746        H  0.58150434  0.18749450  0.07144483     0.09400
H747        H  0.71794767  0.28543932  0.07484084     0.09200
C748        C  0.71239280  0.23569119  0.27614930     0.06300
C749        C  0.68622653  0.19972424  0.27884421    -0.09900
C750        C  0.63760269  0.18148733  0.28197133     0.03800
C751        C  0.61494182  0.19915656  0.28219416    -0.08400
C752        C  0.64106080  0.23517278  0.27943833     0.06300
C753        C  0.68979130  0.25341937  0.27638165    -0.07800
H754        H  0.70383353  0.18612401  0.27922094     0.11900
H755        H  0.57738845  0.18510836  0.28504506     0.09400
H756        H  0.71023461  0.28148220  0.27495989     0.09200
C757        C  0.65585686  0.05305560  0.03154377     0.79600
Tb758      Tb  0.95432536  0.01176032  0.05312661     1.80700
O759        O  0.64340055  0.04691318  0.06278604    -0.48400
O760        O  0.60517286  0.32373769  0.08440760    -0.55900
C761        C  0.55929059  0.07626605  0.05793150     0.95400
O762        O  0.92672099  0.04804145  0.06789845    -0.55400
Tb763      Tb  0.56098195  0.00765610  0.04434351     1.78100
O764        O  0.87702442  0.29026136  0.03995914    -0.55900
O765        O  0.49242574  0.28796614  0.04391270    -0.74700
O766        O  0.57088331  0.05939676  0.07435654    -0.74000
O767        O  0.53790340  0.01194590  0.48008287    -0.59300
C768        C  0.95747467  0.27143925  0.02876612     0.95000
O769        O  0.99066766  0.01775769  0.11008182    -0.71200
C770        C  0.85838258  0.96510526  0.06219912     0.78500
C771        C  0.59159484  0.29552329  0.06268421     0.79400
O772        O  0.62144454  0.03749125  0.00661036    -0.56500
O773        O  0.56458240  0.28951698  0.03491427    -0.48400
O774        O  0.97948790  0.01199275  0.49256076    -0.74500
O775        O  0.52482680  0.00121606  0.09939965    -0.58500
C776        C  0.50171049  0.01242009  0.11554277     0.93200
C777        C  0.50531031  0.01507612  0.46832842     0.94500
C778        C  0.94340819  0.06726589  0.54023527     0.78800
O779        O  0.88685663  0.99354414  0.08427109    -0.47800
O780        O  0.93151495  0.37498049  0.51557682    -0.49000
O781        O  0.94727365  0.28697294  0.05368762    -0.61800
O782        O  0.52297060  0.06050473  0.03444015    -0.63000
C783        C  0.67635401  0.06343741  0.30902184     0.79600
Tb784      Tb  0.96356152  0.01345566  0.30395963     1.80700
O785        O  0.64694425  0.05917631  0.33120374    -0.48400
O786        O  0.59792678  0.31641345  0.31926359    -0.55900
C787        C  0.57000563  0.07789493  0.29250270     0.95400
O788        O  0.93197452  0.04203911  0.33593689    -0.55400
Tb789      Tb  0.57908000  0.01204644  0.29217516     1.78100
O790        O  0.88365543  0.29981866  0.26074180    -0.55900
O791        O  0.48953560  0.29301823  0.30232644    -0.74700
O792        O  0.58258038  0.05999035  0.27380567    -0.74000
O793        O  0.54947494  0.00295745  0.23202010    -0.59300
C794        C  0.96348013  0.28128493  0.30228767     0.95000
O795        O  0.99125902  0.01027093  0.35946755    -0.71200
C796        C  0.86618066  0.96235676  0.28909575     0.78500
C797        C  0.58660942  0.29468344  0.28994857     0.79400
O798        O  0.65774882  0.04297661  0.27862486    -0.56500
O799        O  0.56250293  0.29658658  0.26529327    -0.48400
O800        O  0.98313457  0.01820490  0.24403796    -0.74500
O801        O  0.55985286  0.01862665  0.35102688    -0.58500
C802        C  0.52740911  0.01836602  0.36733821     0.93200
C803        C  0.51760418  0.00372813  0.21500466     0.94500
C804        C  0.94131411  0.06347816  0.31443330     0.78800
O805        O  0.88617046  0.98160794  0.32005925    -0.47800
O806        O  0.92600138  0.37670697  0.27349526    -0.49000
O807        O  0.95070577  0.29981934  0.31919088    -0.61800
O808        O  0.53813645  0.06399504  0.31345689    -0.63000
C809        C  0.53220473  0.02004200  0.40728085    -0.13300
C810        C  0.49904639  0.01572321  0.42890042    -0.28500
H811        H  0.99520619  0.36647923  0.42671616     0.15700
H812        H  0.46709668  0.01269684  0.41761276     0.16300
C813        C  0.49768839  0.01232636  0.15496593    -0.13300
C814        C  0.51797829  0.00110902  0.17509553    -0.28500
H815        H  0.06909073  0.35105773  0.17319099     0.15700
H816        H  0.53860574  0.99204786  0.16236863     0.16300
C817        C  0.61160042  0.14489389  0.28605303    -0.10100
C818        C  0.59191642  0.11432895  0.28943460    -0.11700
C819        C  0.80569115  0.27248913  0.27819582    -0.10100
C820        C  0.76296985  0.25495605  0.27574891    -0.11700
C821        C  0.60195837  0.27126082  0.28477299    -0.10100
C822        C  0.61852088  0.25392842  0.28158469    -0.11700
C823        C  0.61324785  0.14593938  0.06948502    -0.10100
C824        C  0.58876889  0.11410210  0.06504629    -0.11700
C825        C  0.76885899  0.25760450  0.07416222    -0.10100
C826        C  0.81082317  0.27436634  0.07209383    -0.11700
C827        C  0.62473371  0.25696974  0.07141320    -0.10100
C828        C  0.60773767  0.27350845  0.06809332    -0.11700
C829        C  0.91248757  0.10615766  0.32114799    -0.10100
C830        C  0.92751718  0.08782852  0.31883531    -0.11700
C831        C  0.92177047  0.21532298  0.31211852    -0.10100
C832        C  0.94162503  0.24549570  0.30747800    -0.11700
C833        C  0.72655665  0.08813874  0.31751220    -0.10100
C834        C  0.76922699  0.10628984  0.32147138    -0.11700
C835        C  0.92678688  0.08854949  0.53251594    -0.10100
C836        C  0.90826987  0.10381663  0.52763300    -0.11700
C837        C  0.92796411  0.23338645  0.02055061    -0.10100
C838        C  0.90260104  0.20146084  0.01665346    -0.11700
C839        C  0.74641437  0.09115575  0.02083316    -0.10100
C840        C  0.70478779  0.07461608  0.02499818    -0.11700
C841        C  0.81049482  0.11795348  0.52244628     0.06300
C842        C  0.83619984  0.15404421  0.51989130    -0.09900
C843        C  0.88549216  0.17328168  0.51924128     0.03800
C844        C  0.90907621  0.15647426  0.52102762    -0.08400
C845        C  0.88359303  0.12052578  0.52370926     0.06300
C846        C  0.83429750  0.10125423  0.52436921    -0.07800
H847        H  0.81809675  0.16724097  0.51910477     0.11900
H848        H  0.94730963  0.17154103  0.52120873     0.09400
H849        H  0.81461983  0.07347559  0.52690682     0.09200
C850        C  0.81526385  0.12542604  0.77554862     0.06300
C851        C  0.84289690  0.16159741  0.77402600    -0.09900
C852        C  0.89165735  0.17902326  0.77230847     0.04000
C853        C  0.91291580  0.16042567  0.77183019    -0.08400
C854        C  0.88525802  0.12421234  0.77325619     0.06300
C855        C  0.83635410  0.10661694  0.77504852    -0.07800
H856        H  0.82675259  0.17632875  0.77513583     0.11900
H857        H  0.95096037  0.17427213  0.77143925     0.09400
H858        H  0.81503927  0.07865177  0.77689276     0.09200
C859        C  0.72899176  0.24343709  0.54901579     0.06300
C860        C  0.70127720  0.20849995  0.55551676    -0.09900
C861        C  0.65245223  0.19179843  0.55729334     0.03800
C862        C  0.63139192  0.20998676  0.55254870    -0.08400
C863        C  0.65894263  0.24481461  0.54598805     0.06300
C864        C  0.70776510  0.26160267  0.54433207    -0.07800
H865        H  0.71749506  0.19426071  0.55878235     0.11900
H866        H  0.59357298  0.19696232  0.55366239     0.09400
H867        H  0.72913981  0.28867621  0.53937373     0.09200
C868        C  0.72340256  0.25424830  0.82560905     0.06300
C869        C  0.69595106  0.21782882  0.82659479    -0.09900
C870        C  0.64669264  0.19957111  0.82695174     0.03800
C871        C  0.62486529  0.21783185  0.82651524    -0.08400
C872        C  0.65223070  0.25425071  0.82545418     0.06300
C873        C  0.70146843  0.27241021  0.82510054    -0.07800
H874        H  0.71270381  0.20357443  0.82622129     0.11900
H875        H  0.58666603  0.20359699  0.82602137     0.09400
H876        H  0.72252352  0.30044947  0.82356369     0.09200
C877        C  0.66792151  0.05911027  0.52989973     0.79600
Tb878      Tb  0.96555320  0.01979318  0.55410526     1.80700
O879        O  0.64983897  0.06359166  0.55754379    -0.48400
O880        O  0.60770209  0.32203874  0.57099891    -0.55900
C881        C  0.57071280  0.08597237  0.55780653     0.95400
O882        O  0.94174401  0.05812258  0.57097976    -0.55400
Tb883      Tb  0.57108225  0.01473155  0.53726836     1.78100
O884        O  0.88758030  0.31687935  0.51653094    -0.55900
O885        O  0.50962437  0.30384119  0.56360465    -0.74700
O886        O  0.58301651  0.06954788  0.53622548    -0.74000
O887        O  0.54209857  0.01811639  0.98775683    -0.59300
C888        C  0.96850227  0.28069703  0.53084259     0.95000
O889        O  0.00093943  0.02788546  0.61219895    -0.71200
C890        C  0.86851091  0.97385166  0.55870509     0.78500
C891        C  0.60287477  0.30239661  0.54181770     0.79400
O892        O  0.63816491  0.03309381  0.50571085    -0.56500
O893        O  0.58418204  0.30572944  0.51441729    -0.48400
O894        O  0.97284650  0.01344607  0.99249443    -0.74500
O895        O  0.55740964  0.01995590  0.59950680    -0.58500
C896        C  0.52671208  0.01891429  0.61936199     0.93200
C897        C  0.50252156  0.00509733  0.96865705     0.94500
C898        C  0.92655177  0.05543796  0.03640987     0.78800
O899        O  0.89618168  0.00127430  0.58222508    -0.47800
O900        O  0.95386910  0.37987335  0.02163796    -0.49000
O901        O  0.96010344  0.29874156  0.51340874    -0.61800
O902        O  0.53453444  0.07004113  0.57461297    -0.63000
C903        C  0.67437173  0.07061227  0.78529184     0.79600
Tb904      Tb  0.96399844  0.02204989  0.80423186     1.80700
O905        O  0.65593161  0.07360618  0.81336278    -0.48400
O906        O  0.58875890  0.32820582  0.83279453    -0.55900
C907        C  0.56962347  0.09172690  0.81460230     0.95400
O908        O  0.93705091  0.05846277  0.81933619    -0.55400
Tb909      Tb  0.57801236  0.02456865  0.79128837     1.78100
O910        O  0.87614025  0.31325201  0.78052078    -0.55900
O911        O  0.49971903  0.30391422  0.76376892    -0.74700
O912        O  0.58218223  0.07706647  0.79073868    -0.74000
O913        O  0.54616342  0.02146904  0.73405267    -0.59300
C914        C  0.96849822  0.28598903  0.78700340     0.95000
O915        O  0.99549771  0.02590462  0.86180026    -0.71200
C916        C  0.86704615  0.97630216  0.80872560     0.78500
C917        C  0.59737235  0.31095725  0.80887064     0.79400
O918        O  0.64526662  0.04555233  0.76015465    -0.56500
O919        O  0.59213213  0.31525251  0.77678464    -0.48400
O920        O  0.98242956  0.02126252  0.74400961    -0.74500
O921        O  0.56682076  0.02938626  0.85357992    -0.58500
C922        C  0.53373746  0.02485020  0.87236680     0.93200
C923        C  0.50892462  0.01821188  0.72119903     0.94500
C924        C  0.94127376  0.06860853  0.78891608     0.78800
O925        O  0.89491819  0.00314713  0.83275854    -0.47800
O926        O  0.92217606  0.36928765  0.76042981    -0.49000
O927        O  0.95444216  0.30116164  0.77005939    -0.61800
O928        O  0.53439767  0.07370905  0.83161511    -0.63000
C929        C  0.53895726  0.02333478  0.91155188    -0.13300
C930        C  0.50059807  0.00740594  0.92956683    -0.28500
H931        H  0.05468119  0.36393597  0.92701175     0.15700
H932        H  0.46564041  0.99575773  0.91507537     0.16300
C933        C  0.53392937  0.02007720  0.65902199    -0.13300
C934        C  0.50159216  0.01666105  0.68148813    -0.28500
H935        H  0.97630927  0.35679306  0.67353295     0.15700
H936        H  0.46905870  0.01300749  0.67059029     0.16300
C937        C  0.61833216  0.16167387  0.82520694    -0.10100
C938        C  0.59549607  0.12974707  0.82159743    -0.11700
C939        C  0.81525398  0.28841688  0.81901961    -0.10100
C940        C  0.77362134  0.27259421  0.82294618    -0.11700
C941        C  0.61337830  0.28941107  0.81720259    -0.10100
C942        C  0.62975648  0.27268103  0.82213948    -0.11700
C943        C  0.62330858  0.15529503  0.56180370    -0.10100
C944        C  0.59860106  0.12392663  0.56228478    -0.11700
C945        C  0.77911973  0.26075021  0.54686067    -0.10100
C946        C  0.82125361  0.27729557  0.54494382    -0.11700
C947        C  0.63707400  0.26343680  0.54166587    -0.10100
C948        C  0.61961915  0.27991328  0.54012975    -0.11700
C949        C  0.90764618  0.10579612  0.77576615    -0.10100
C950        C  0.92509825  0.08984185  0.78045744    -0.11700
C951        C  0.92032085  0.21659715  0.77431092    -0.10100
C952        C  0.94310767  0.24836296  0.77891454    -0.11700
C953        C  0.72408897  0.09233597  0.78250064    -0.10100
C954        C  0.76570418  0.10801487  0.77924777    -0.11700
C955        C  0.90849968  0.07555642  0.02750300    -0.10100
C956        C  0.89042604  0.09101901  0.02199516    -0.11700
C957        C  0.93754350  0.24274213  0.52296947    -0.10100
C958        C  0.91269092  0.21087272  0.51957334    -0.11700
C959        C  0.75999577  0.09825150  0.52435091    -0.10100
C960        C  0.71787348  0.08095493  0.52661850    -0.11700
C961        C  0.80203853  0.44097895  0.02344583     0.06300
C962        C  0.82799918  0.47742796  0.02292766    -0.09900
C963        C  0.87750812  0.49712958  0.02439070     0.03800
C964        C  0.90123568  0.48040058  0.02643557    -0.08400
C965        C  0.87541341  0.44388467  0.02676650     0.06300
C966        C  0.82574723  0.42416377  0.02509267    -0.07800
H967        H  0.80981299  0.49057147  0.02215366     0.11900
H968        H  0.93964795  0.49582211  0.02827806     0.09400
H969        H  0.80573281  0.39602044  0.02604987     0.09200
C970        C  0.80318738  0.45260420  0.29349726     0.06300
C971        C  0.82967437  0.48685833  0.28504187    -0.09900
C972        C  0.87848532  0.50397651  0.28286535     0.04000
C973        C  0.90074280  0.48691490  0.28905998    -0.08400
C974        C  0.87445428  0.45284210  0.29767328     0.06300
C975        C  0.82566123  0.43562642  0.29977680    -0.07800
H976        H  0.81255656  0.50026170  0.28061910     0.11900
H977        H  0.93855188  0.50028808  0.28758258     0.09400
H978        H  0.80523231  0.40907940  0.30622427     0.09200
C979        C  0.71892055  0.57356700  0.06462219     0.06300
C980        C  0.69387271  0.53819493  0.06967834    -0.09900
C981        C  0.64498522  0.51935832  0.07207115     0.03800
C982        C  0.62106592  0.53585374  0.06939577    -0.08400
C983        C  0.64598187  0.57116215  0.06421171     0.06300
C984        C  0.69492265  0.59000920  0.06190492    -0.07800
H985        H  0.71215260  0.52517720  0.07102938     0.11900
H986        H  0.58306459  0.52103484  0.07051823     0.09400
H987        H  0.71417015  0.61726309  0.05750515     0.09200
C988        C  0.72328726  0.57645157  0.32017807     0.06300
C989        C  0.69647334  0.54006973  0.32150979    -0.09900
C990        C  0.64750581  0.52180859  0.32361552     0.03800
C991        C  0.62543291  0.53991007  0.32463193    -0.08400
C992        C  0.65204829  0.57614732  0.32317972     0.06300
C993        C  0.70095057  0.59441143  0.32094177    -0.07800
H994        H  0.71342093  0.52592003  0.32021276     0.11900
H995        H  0.58742105  0.52562041  0.32551583     0.09400
H996        H  0.72142916  0.62240209  0.31919408     0.09200
C997        C  0.66121433  0.38542295  0.03596629     0.79600
Tb998      Tb  0.95486610  0.34100150  0.05649079     1.80700
O999        O  0.64932110  0.37639244  0.06658372    -0.48400
O1000       O  0.57071126  0.63688970  0.07115481    -0.55900
C1001       C  0.56451995  0.41253159  0.06332456     0.95400
O1002       O  0.92505155  0.37565682  0.07208604    -0.55400
Tb1003     Tb  0.56691221  0.34188146  0.04936262     1.78100
O1004       O  0.87303684  0.63662545  0.02014155    -0.55900
O1005       O  0.49813918  0.62474445  0.00574275    -0.74700
O1006       O  0.57737223  0.39487549  0.07685201    -0.74000
O1007       O  0.54220736  0.33450777  0.48531899    -0.59300
C1008       C  0.95613622  0.60445919  0.03115901     0.95000
O1009       O  0.99107561  0.34378291  0.11168248    -0.71200
C1010       C  0.86005859  0.29606261  0.06760850     0.78500
C1011       C  0.58927647  0.62664474  0.04826764     0.79400
O1012       O  0.62653203  0.37409508  0.01217736    -0.56500
O1013       O  0.59614876  0.63961312  0.01938758    -0.48400
O1014       O  0.00023685  0.35245587  0.48689789    -0.74500
O1015       O  0.53809801  0.34725790  0.10425676    -0.58500
C1016       C  0.50139656  0.34541567  0.11390268     0.93200
C1017       C  0.51531868  0.34020035  0.46793429     0.94500
C1018       C  0.94217226  0.39832844  0.54318761     0.78800
O1019       O  0.88997191  0.32362551  0.09013349    -0.47800
O1020       O  0.92710852  0.71269863  0.52624387    -0.49000
O1021       O  0.94266416  0.61987451  0.01388853    -0.61800
O1022       O  0.52675233  0.39846610  0.04171966    -0.63000
C1023       C  0.66064399  0.39414409  0.29902028     0.79600
Tb1024     Tb  0.95457009  0.34640572  0.29733057     1.80700
O1025       O  0.64355005  0.37527289  0.32349380    -0.48400
O1026       O  0.57877631  0.64406709  0.32938421    -0.55900
C1027       C  0.56228111  0.41415593  0.31069491     0.95400
O1028       O  0.94932602  0.39173814  0.33006453    -0.55400
Tb1029     Tb  0.56365983  0.34436721  0.29879369     1.78100
O1030       O  0.88254914  0.62928227  0.28198637    -0.55900
O1031       O  0.50061965  0.62538168  0.26552435    -0.74700
O1032       O  0.57256862  0.39647204  0.32699395    -0.74000
O1033       O  0.54676947  0.34606715  0.23768698    -0.59300
C1034       C  0.96093735  0.60902469  0.27969066     0.95000
O1035       O  0.98848784  0.35924471  0.35781570    -0.71200
C1036       C  0.85639043  0.29620686  0.28466792     0.78500
C1037       C  0.59534938  0.63133832  0.30730593     0.79400
O1038       O  0.62976815  0.38937367  0.27510213    -0.56500
O1039       O  0.59920365  0.64045363  0.27635690    -0.48400
O1040       O  0.96892668  0.33114575  0.23880757    -0.74500
O1041       O  0.53397561  0.34341007  0.35501898    -0.58500
C1042       C  0.50138420  0.34649607  0.36664037     0.93200
C1043       C  0.51489833  0.34331149  0.21619264     0.94500
C1044       C  0.93104646  0.39592484  0.30307154     0.78800
O1045       O  0.87765253  0.31645601  0.31487140    -0.47800
O1046       O  0.95981654  0.71867128  0.26570009    -0.49000
O1047       O  0.95319647  0.62671645  0.30389205    -0.61800
O1048       O  0.52603209  0.39945798  0.28725734    -0.63000
C1049       C  0.49546453  0.34712885  0.40608922    -0.13300
C1050       C  0.51623223  0.33715033  0.42788480    -0.28500
H1051       H  0.07179064  0.68317534  0.41508550     0.15700
H1052       H  0.53716051  0.32794605  0.41617520     0.16300
C1053       C  0.49365860  0.34518032  0.15281557    -0.13300
C1054       C  0.52235228  0.34421999  0.17734562    -0.28500
H1055       H  0.05847276  0.69155759  0.16740557     0.15700
H1056       H  0.55276479  0.34449275  0.16883930     0.16300
C1057       C  0.61898813  0.48400889  0.32200403    -0.10100
C1058       C  0.59336275  0.45212413  0.31812284    -0.11700
C1059       C  0.81526869  0.61240455  0.31369444    -0.10100
C1060       C  0.77339398  0.59529290  0.31686374    -0.11700
C1061       C  0.61110157  0.60998622  0.31663811    -0.10100
C1062       C  0.62869135  0.59404789  0.32125599    -0.11700
C1063       C  0.61852785  0.48224452  0.07407261    -0.10100
C1064       C  0.59462466  0.45047326  0.07170667    -0.11700
C1065       C  0.76889107  0.59264546  0.06091233    -0.10100
C1066       C  0.81048801  0.60911554  0.05690443    -0.11700
C1067       C  0.62135677  0.58786213  0.05982440    -0.10100
C1068       C  0.60405140  0.60400064  0.05505561    -0.11700
C1069       C  0.89740010  0.43521281  0.30334583    -0.10100
C1070       C  0.91498318  0.41887516  0.30538743    -0.11700
C1071       C  0.90668800  0.54000093  0.27690582    -0.10100
C1072       C  0.93174138  0.57117857  0.27574810    -0.11700
C1073       C  0.71080152  0.41753006  0.29760177    -0.10100
C1074       C  0.75299359  0.43465529  0.29582071    -0.11700
C1075       C  0.92562438  0.42086056  0.54519999    -0.10100
C1076       C  0.90887001  0.43797984  0.54724708    -0.11700
C1077       C  0.92707782  0.56653897  0.02713996    -0.10100
C1078       C  0.90410107  0.53480788  0.02527474    -0.11700
C1079       C  0.75153656  0.42150835  0.02500441    -0.10100
C1080       C  0.70988376  0.40555561  0.02879824    -0.11700
C1081       C  0.81881588  0.45974521  0.55667614     0.06300
C1082       C  0.84557592  0.49522190  0.55217880    -0.09900
C1083       C  0.89325310  0.51173286  0.54643702     0.03800
C1084       C  0.91429597  0.49294594  0.54508713    -0.08400
C1085       C  0.88753170  0.45745812  0.54947825     0.06300
C1086       C  0.83979431  0.44081144  0.55535175    -0.07800
H1087       H  0.82929066  0.50983292  0.55284302     0.11900
H1088       H  0.95124432  0.50583961  0.54052003     0.09400
H1089       H  0.81890980  0.41313714  0.55835206     0.09200
C1090       C  0.80738414  0.45549257  0.76947098     0.06300
C1091       C  0.83609056  0.49209366  0.76951536    -0.09900
C1092       C  0.88529309  0.50950134  0.76968580     0.04000
C1093       C  0.90583755  0.49035493  0.76977314    -0.08400
C1094       C  0.87733214  0.45380958  0.76977569     0.06300
C1095       C  0.82807907  0.43637497  0.76954504    -0.07800
H1096       H  0.82032844  0.50705355  0.77000956     0.11900
H1097       H  0.94398794  0.50397302  0.77049957     0.09400
H1098       H  0.80603201  0.40814641  0.77009464     0.09200
C1099       C  0.71913005  0.56988898  0.50901918     0.06300
C1100       C  0.69191707  0.53463358  0.51439706    -0.09900
C1101       C  0.64388468  0.51828034  0.51908605     0.03800
C1102       C  0.62289167  0.53703406  0.51799735    -0.08400
C1103       C  0.65002535  0.57225107  0.51241771     0.06300
C1104       C  0.69812622  0.58865040  0.50791623    -0.07800
H1105       H  0.70839136  0.52034584  0.51607898     0.11900
H1106       H  0.58591457  0.52454059  0.52225724     0.09400
H1107       H  0.71950110  0.61627319  0.50472152     0.09200
C1108       C  0.72637869  0.57820048  0.76918084     0.06300
C1109       C  0.69926763  0.54330958  0.77581278    -0.09900
C1110       C  0.65026895  0.52592185  0.77689103     0.03800
C1111       C  0.62835543  0.54344058  0.77151996    -0.08400
C1112       C  0.65535382  0.57840684  0.76519916     0.06300
C1113       C  0.70436599  0.59573238  0.76390057    -0.07800
H1114       H  0.71624915  0.52981946  0.78030962     0.11900
H1115       H  0.59055634  0.53013018  0.77295291     0.09400
H1116       H  0.72547220  0.62302317  0.75959448     0.09200
C1117       C  0.67612250  0.40137048  0.55531198     0.79600
Tb1118     Tb  0.96754830  0.35043666  0.54136360     1.80700
O1119       O  0.64979301  0.40012645  0.57918817    -0.48400
O1120       O  0.58046755  0.63655806  0.55188102    -0.55900
C1121       C  0.57172811  0.41730999  0.53927395     0.95400
O1122       O  0.96676479  0.39890611  0.56943830    -0.55400
Tb1123     Tb  0.57817898  0.35110176  0.54561453     1.78100
O1124       O  0.89302911  0.63434910  0.50140715    -0.55900
O1125       O  0.50255267  0.63048962  0.51495575    -0.74700
O1126       O  0.58263431  0.39745530  0.52256767    -0.74000
O1127       O  0.55252900  0.34180503  0.98712165    -0.59300
C1128       C  0.96749018  0.61583591  0.53901946     0.95000
O1129       O  0.98146667  0.35081202  0.60348466    -0.71200
C1130       C  0.87123993  0.30035615  0.54280433     0.78500
C1131       C  0.59935675  0.63423159  0.52383700     0.79400
O1132       O  0.65404495  0.37867777  0.52663924    -0.56500
O1133       O  0.60561112  0.65552529  0.50295717    -0.48400
O1134       O  0.96116429  0.33542431  0.99341067    -0.74500
O1135       O  0.56656048  0.36760343  0.60461747    -0.58500
C1136       C  0.53044983  0.36114712  0.62016418     0.93200
C1137       C  0.52475442  0.34370172  0.96572136     0.94500
C1138       C  0.93316660  0.38904544  0.04342410     0.78800
O1139       O  0.90261948  0.30742646  0.56775991    -0.47800
O1140       O  0.93495502  0.70306852  0.00352212    -0.49000
O1141       O  0.95662663  0.63413503  0.55915617    -0.61800
O1142       O  0.54005055  0.40598401  0.56073645    -0.63000
C1143       C  0.66573776  0.40055817  0.77923917     0.79600
Tb1144     Tb  0.95876238  0.35138880  0.79791723     1.80700
O1145       O  0.64973608  0.40604856  0.80769590    -0.48400
O1146       O  0.61850335  0.66064808  0.80456949    -0.55900
C1147       C  0.56742110  0.42367422  0.79318839     0.95400
O1148       O  0.95856339  0.40286706  0.81107008    -0.55400
Tb1149     Tb  0.57092487  0.35560561  0.79206311     1.78100
O1150       O  0.89307661  0.65588131  0.75104506    -0.55900
O1151       O  0.51681064  0.64049024  0.81179274    -0.74700
O1152       O  0.58338819  0.41084229  0.81224984    -0.74000
O1153       O  0.54028730  0.35601398  0.73439666    -0.59300
C1154       C  0.97214915  0.61702859  0.77988991     0.95000
O1155       O  0.97628492  0.34133751  0.85555261    -0.71200
C1156       C  0.86406393  0.30846651  0.81206338     0.78500
C1157       C  0.60366885  0.63938647  0.77461230     0.79400
O1158       O  0.63472292  0.37357753  0.75663744    -0.56500
O1159       O  0.57694458  0.64212824  0.75339446    -0.48400
O1160       O  0.99025250  0.35200776  0.74101243    -0.74500
O1161       O  0.54174384  0.34760950  0.84978622    -0.58500
C1162       C  0.52485397  0.36277222  0.86815509     0.93200
C1163       C  0.50215794  0.35048008  0.71920029     0.94500
C1164       C  0.93323680  0.39686885  0.78217673     0.78800
O1165       O  0.89877114  0.32389833  0.83673455    -0.47800
O1166       O  0.93913888  0.71589844  0.76167659    -0.49000
O1167       O  0.96307491  0.63370212  0.76071108    -0.61800
O1168       O  0.52525422  0.40505167  0.77744904    -0.63000
C1169       C  0.51977519  0.36129783  0.90733381    -0.13300
C1170       C  0.53428809  0.34597997  0.92718204    -0.28500
H1171       H  0.97665470  0.68983765  0.91762697     0.15700
H1172       H  0.55419550  0.33589699  0.91539366     0.16300
C1173       C  0.53459704  0.36299576  0.66024035    -0.13300
C1174       C  0.49713006  0.34999146  0.67939491    -0.28500
H1175       H  0.99592593  0.69669594  0.66870792     0.15700
H1176       H  0.46211702  0.33939824  0.66576465     0.16300
C1177       C  0.62233949  0.49016827  0.78382453    -0.10100
C1178       C  0.59780714  0.45999050  0.78884025    -0.11700
C1179       C  0.81972456  0.61341253  0.77048471    -0.10100
C1180       C  0.77703957  0.59653933  0.76920448    -0.11700
C1181       C  0.61749150  0.61521631  0.76590891    -0.10100
C1182       C  0.63352045  0.59748292  0.76332429    -0.11700
C1183       C  0.61684769  0.48280455  0.52674287    -0.10100
C1184       C  0.59553585  0.45309147  0.53318699    -0.11700
C1185       C  0.76957772  0.58808444  0.50871291    -0.10100
C1186       C  0.81232097  0.60583714  0.51265692    -0.11700
C1187       C  0.62951268  0.59240646  0.51391998    -0.10100
C1188       C  0.61430773  0.61064013  0.51724988    -0.11700
C1189       C  0.89893142  0.43460729  0.77198431    -0.10100
C1190       C  0.91610876  0.41817010  0.77565677    -0.11700
C1191       C  0.91513484  0.54730793  0.77148402    -0.10100
C1192       C  0.94100364  0.57910875  0.77445445    -0.11700
C1193       C  0.71510643  0.42178065  0.77398927    -0.10100
C1194       C  0.75703205  0.43776578  0.77110328    -0.11700
C1195       C  0.91754878  0.41104532  0.03577338    -0.10100
C1196       C  0.89981525  0.42689656  0.03082154    -0.11700
C1197       C  0.94269014  0.57891621  0.53984516    -0.10100
C1198       C  0.92061804  0.54809514  0.54217831    -0.11700
C1199       C  0.76915070  0.44212707  0.56035150    -0.10100
C1200       C  0.72672872  0.42522319  0.56017457    -0.11700
C1201       C  0.80766025  0.78078331  0.02274415     0.06300
C1202       C  0.83423447  0.81695237  0.02079650    -0.09900
C1203       C  0.88309053  0.83518419  0.01847172     0.03800
C1204       C  0.90545135  0.81725716  0.01822117    -0.08400
C1205       C  0.87886205  0.78106031  0.02028735     0.06300
C1206       C  0.82997891  0.76287700  0.02241821    -0.07800
H1207       H  0.81707994  0.83093906  0.02148329     0.11900
H1208       H  0.94339309  0.83150764  0.01704225     0.09400
H1209       H  0.80942817  0.73491465  0.02429615     0.09200
C1210       C  0.81232541  0.78278431  0.27402634     0.06300
C1211       C  0.83822697  0.81898226  0.27204348    -0.09900
C1212       C  0.88742592  0.83801604  0.27100142     0.04000
C1213       C  0.91072621  0.82090824  0.27178581    -0.08400
C1214       C  0.88494322  0.78480226  0.27381475     0.06300
C1215       C  0.83574782  0.76572959  0.27480027    -0.07800
H1216       H  0.82038054  0.83242726  0.27209562     0.11900
H1217       H  0.94892001  0.83583449  0.27175116     0.09400
H1218       H  0.81587570  0.73783307  0.27690208     0.09200
C1219       C  0.71593735  0.90597054  0.07021334     0.06300
C1220       C  0.68914786  0.86997732  0.07325862    -0.09900
C1221       C  0.63999599  0.85171872  0.07453662     0.03800
C1222       C  0.61758402  0.86941416  0.07257382    -0.08400
C1223       C  0.64419868  0.90534819  0.06945034     0.06300
C1224       C  0.69335397  0.92357797  0.06839323    -0.07800
H1225       H  0.70635095  0.85613769  0.07419312     0.11900
H1226       H  0.57948971  0.85514276  0.07292798     0.09400
H1227       H  0.71392991  0.95133969  0.06572116     0.09200
C1228       C  0.72232897  0.90085778  0.27742141     0.06300
C1229       C  0.69556209  0.86670475  0.28596253    -0.09900
C1230       C  0.64678693  0.84980040  0.28780401     0.03800
C1231       C  0.62469346  0.86678694  0.28090942    -0.08400
C1232       C  0.65138323  0.90084786  0.27235910     0.06300
C1233       C  0.70019274  0.91792354  0.27058425    -0.07800
H1234       H  0.71266849  0.85355910  0.29162237     0.11900
H1235       H  0.58701362  0.85377764  0.28278724     0.09400
H1236       H  0.72108818  0.94475991  0.26493361     0.09200
C1237       C  0.66586892  0.72185235  0.03112006     0.79600
Tb1238     Tb  0.95521056  0.67395436  0.03986069     1.80700
O1239       O  0.64696177  0.72507142  0.05876502    -0.48400
O1240       O  0.59123330  0.98494635  0.08137247    -0.55900
C1241       C  0.56325692  0.74455899  0.06613198     0.95400
O1242       O  0.94258377  0.71847360  0.06067192    -0.55400
Tb1243     Tb  0.56907626  0.67579171  0.03690946     1.78100
O1244       O  0.87746949  0.95922749  0.03611211    -0.55900
O1245       O  0.49164241  0.95457217  0.01596088    -0.74700
O1246       O  0.57778907  0.73053691  0.04336830    -0.74000
O1247       O  0.55027187  0.69004876  0.48487870    -0.59300
C1248       C  0.95804247  0.94231191  0.02677596     0.95000
O1249       O  0.97791766  0.66806580  0.09775352    -0.71200
C1250       C  0.85961597  0.62997257  0.05105329     0.78500
C1251       C  0.58670952  0.96131812  0.05672123     0.79400
O1252       O  0.63707568  0.69613861  0.00633335    -0.56500
O1253       O  0.56805410  0.95972847  0.02624616    -0.48400
O1254       O  0.97953402  0.67617270  0.48296322    -0.74500
O1255       O  0.55365446  0.67593483  0.09804862    -0.58500
C1256       C  0.52375922  0.67564688  0.11801529     0.93200
C1257       C  0.51130902  0.68405151  0.47171673     0.94500
C1258       C  0.93912666  0.73296686  0.55660021     0.78800
O1259       O  0.89333883  0.64418119  0.07636507    -0.47800
O1260       O  0.95813384  0.05425131  0.51659899    -0.49000
O1261       O  0.94519371  0.95714160  0.05015507    -0.61800
O1262       O  0.52615957  0.72628541  0.08122351    -0.63000
C1263       C  0.67026927  0.72335573  0.28277110     0.79600
Tb1264     Tb  0.96082202  0.67964590  0.30001352     1.80700
O1265       O  0.65108531  0.72901798  0.30892059    -0.48400
O1266       O  0.61285298  0.98230076  0.30764384    -0.55900
C1267       C  0.56913218  0.74726145  0.30067062     0.95400
O1268       O  0.93375969  0.71578125  0.31731683    -0.55400
Tb1269     Tb  0.57352783  0.67794117  0.28971378     1.78100
O1270       O  0.89432864  0.96779982  0.26533384    -0.55900
O1271       O  0.51038200  0.96391818  0.30909432    -0.74700
O1272       O  0.58008763  0.72924593  0.28025699    -0.74000
O1273       O  0.53895374  0.67043317  0.23139323    -0.59300
C1274       C  0.96796008  0.94544840  0.28230769     0.95000
O1275       O  0.99958510  0.68546254  0.35573671    -0.71200
C1276       C  0.86489683  0.63455402  0.30950898     0.78500
C1277       C  0.60003955  0.96145292  0.27758658     0.79400
O1278       O  0.64171265  0.69558191  0.25995333    -0.56500
O1279       O  0.57580894  0.96485931  0.25462218    -0.48400
O1280       O  0.96658578  0.67129579  0.23656274    -0.74500
O1281       O  0.56127298  0.68785871  0.35127806    -0.58500
C1282       C  0.53002466  0.68641985  0.37061916     0.93200
C1283       C  0.50706771  0.67418468  0.21945141     0.94500
C1284       C  0.94101123  0.72882229  0.28845344     0.78800
O1285       O  0.89466238  0.66176143  0.33256963    -0.47800
O1286       O  0.96229361  0.06064645  0.28803040    -0.49000
O1287       O  0.96006827  0.96187890  0.30799829    -0.61800
O1288       O  0.53536010  0.73333489  0.32009171    -0.63000
C1289       C  0.53801876  0.68913888  0.41037630    -0.13300
C1290       C  0.50452569  0.68370232  0.43235597    -0.28500
H1291       H  0.06770650  0.01740987  0.42232323     0.15700
H1292       H  0.47089521  0.67813173  0.42112853     0.16300
C1293       C  0.53039089  0.67483640  0.15706857    -0.13300
C1294       C  0.50031178  0.67406044  0.18020055    -0.28500
H1295       H  0.06204653  0.01531879  0.16997214     0.15700
H1296       H  0.47044168  0.67445667  0.17033614     0.16300
C1297       C  0.61910399  0.81479319  0.29630677    -0.10100
C1298       C  0.59558502  0.78446135  0.30063391    -0.11700
C1299       C  0.81572412  0.93762270  0.28170539    -0.10100
C1300       C  0.77298311  0.91954196  0.27834508    -0.11700
C1301       C  0.61361326  0.93718954  0.27042737    -0.10100
C1302       C  0.62954992  0.91953430  0.26896374    -0.11700
C1303       C  0.61214656  0.81431500  0.07567506    -0.10100
C1304       C  0.58916314  0.78253227  0.07354978    -0.11700
C1305       C  0.76640159  0.92487328  0.06809425    -0.10100
C1306       C  0.80854123  0.94232008  0.06574485    -0.11700
C1307       C  0.62105054  0.92335662  0.06611354    -0.10100
C1308       C  0.60364527  0.93964918  0.06231885    -0.11700
C1309       C  0.90909473  0.76764734  0.27709360    -0.10100
C1310       C  0.92633658  0.75144058  0.28154690    -0.11700
C1311       C  0.91470923  0.87565002  0.27190267    -0.10100
C1312       C  0.93881801  0.90749452  0.27528852    -0.11700
C1313       C  0.72012020  0.74585596  0.27954254    -0.10100
C1314       C  0.76207591  0.76331747  0.27675908    -0.11700
C1315       C  0.92527294  0.75717751  0.56412322    -0.10100
C1316       C  0.90918051  0.77483335  0.56719108    -0.11700
C1317       C  0.93251878  0.90441614  0.02054231    -0.10100
C1318       C  0.91047128  0.87268895  0.01828664    -0.11700
C1319       C  0.75762527  0.76197249  0.02577058    -0.10100
C1320       C  0.71568924  0.74460436  0.02836899    -0.11700
C1321       C  0.81666977  0.79464056  0.57019816     0.06300
C1322       C  0.84260588  0.82941799  0.56314555    -0.09900
C1323       C  0.89066575  0.84628073  0.55809353     0.03800
C1324       C  0.91285856  0.82852260  0.56032173    -0.08400
C1325       C  0.88714806  0.79389279  0.56755496     0.06300
C1326       C  0.83907272  0.77696948  0.57253751    -0.07800
H1327       H  0.82525831  0.84300315  0.56082743     0.11900
H1328       H  0.94987205  0.84144808  0.55595220     0.09400
H1329       H  0.81880598  0.74975625  0.57711136     0.09200
C1330       C  0.82303077  0.79730411  0.79859799     0.06300
C1331       C  0.84968435  0.83221632  0.79221170    -0.09900
C1332       C  0.89777803  0.84878572  0.78771533     0.04000
C1333       C  0.91937968  0.83058112  0.78965525    -0.08400
C1334       C  0.89276056  0.79563503  0.79598344     0.06300
C1335       C  0.84456358  0.77897010  0.80040671    -0.07800
H1336       H  0.83308399  0.84643979  0.79074371     0.11900
H1337       H  0.95667167  0.84352625  0.78623733     0.09400
H1338       H  0.82379220  0.75173145  0.80489789     0.09200
C1339       C  0.72567783  0.91483972  0.56358229     0.06300
C1340       C  0.69955451  0.87865334  0.56556496    -0.09900
C1341       C  0.65030952  0.85967585  0.56614485     0.03800
C1342       C  0.62716943  0.87685852  0.56489402    -0.08400
C1343       C  0.65314976  0.91299480  0.56291791     0.06300
C1344       C  0.70243383  0.93200630  0.56228284    -0.07800
H1345       H  0.71734920  0.86520951  0.56613358     0.11900
H1346       H  0.58897226  0.86201985  0.56483291     0.09400
H1347       H  0.72253352  0.95994612  0.56034886     0.09200
C1348       C  0.72442283  0.91819376  0.81281992     0.06300
C1349       C  0.69788345  0.88195961  0.81433491    -0.09900
C1350       C  0.64856375  0.86310353  0.81396015     0.03800
C1351       C  0.62577333  0.88057857  0.81255731    -0.08400
C1352       C  0.65242328  0.91694595  0.81138602     0.06300
C1353       C  0.70171917  0.93568337  0.81136301    -0.07800
H1354       H  0.71542687  0.86834526  0.81511032     0.11900
H1355       H  0.58752601  0.86589530  0.81194956     0.09400
H1356       H  0.72232219  0.96375359  0.80994678     0.09200
C1357       C  0.67293267  0.73326488  0.55894718     0.79600
Tb1358     Tb  0.95963269  0.68189425  0.54146033     1.80700
O1359       O  0.64314493  0.72571662  0.58175060    -0.48400
O1360       O  0.57758192  0.97869782  0.57307456    -0.55900
C1361       C  0.57251668  0.75249197  0.55932290     0.95400
O1362       O  0.96247313  0.72879238  0.57962526    -0.55400
Tb1363     Tb  0.57570015  0.68324504  0.53939793     1.78100
O1364       O  0.88881089  0.96861597  0.53316653    -0.55900
O1365       O  0.49767591  0.96347388  0.51134536    -0.74700
O1366       O  0.58141486  0.73567237  0.53486605    -0.74000
O1367       O  0.54098006  0.67915642  0.98154304    -0.59300
C1368       C  0.96679010  0.94931936  0.54485149     0.95000
O1369       O  0.98993084  0.68843525  0.60083161    -0.71200
C1370       C  0.86250917  0.63042623  0.52233903     0.78500
C1371       C  0.59342305  0.96687115  0.54917194     0.79400
O1372       O  0.65461367  0.71665814  0.52679588    -0.56500
O1373       O  0.59587223  0.97723289  0.51907253    -0.48400
O1374       O  0.98849622  0.67982705  0.98357447    -0.74500
O1375       O  0.55400376  0.67632689  0.59867891    -0.58500
C1376       C  0.53106367  0.68387103  0.61994898     0.93200
C1377       C  0.50673051  0.68016371  0.96965046     0.94500
C1378       C  0.93261934  0.72237575  0.02962252     0.78800
O1379       O  0.87998157  0.65112661  0.55268967    -0.47800
O1380       O  0.94173527  0.04232743  0.01336049    -0.49000
O1381       O  0.95697747  0.96811838  0.56521527    -0.61800
O1382       O  0.53922860  0.73649233  0.57866880    -0.63000
C1383       C  0.68014606  0.73975399  0.79955157     0.79600
Tb1384     Tb  0.96893067  0.68582798  0.78422197     1.80700
O1385       O  0.65636570  0.73444303  0.82636281    -0.48400
O1386       O  0.57959909  0.98476473  0.82414968    -0.55900
C1387       C  0.57247353  0.75590047  0.80661855     0.95400
O1388       O  0.96550301  0.73138258  0.81796148    -0.55400
Tb1389     Tb  0.58198945  0.68952491  0.79265284     1.78100
O1390       O  0.88707791  0.97144076  0.78275704    -0.55900
O1391       O  0.50778850  0.97066801  0.76427695    -0.74700
O1392       O  0.58250960  0.73902005  0.78319910    -0.74000
O1393       O  0.54614336  0.68211080  0.73458270    -0.59300
C1394       C  0.97048178  0.95345272  0.78401726     0.95000
O1395       O  0.98054106  0.68354098  0.84624683    -0.71200
C1396       C  0.87065090  0.63632622  0.77398795     0.78500
C1397       C  0.59959365  0.97591218  0.80124589     0.79400
O1398       O  0.65540867  0.72116127  0.76958144    -0.56500
O1399       O  0.60785732  0.99043366  0.77338771    -0.48400
O1400       O  0.00383715  0.68801256  0.73055262    -0.74500
O1401       O  0.56881750  0.69586400  0.85414963    -0.58500
C1402       C  0.53590118  0.69349451  0.87186498     0.93200
C1403       C  0.51309312  0.68399890  0.72127218     0.94500
C1404       C  0.94594128  0.73545821  0.79168281     0.78800
O1405       O  0.89690135  0.64018292  0.80126100    -0.47800
O1406       O  0.95869189  0.05701175  0.76637378    -0.49000
O1407       O  0.95659384  0.96872648  0.80560146    -0.61800
O1408       O  0.53875556  0.74003866  0.82565461    -0.63000
C1409       C  0.53987147  0.69289381  0.91122930    -0.13300
C1410       C  0.50373053  0.68442867  0.93129555    -0.28500
H1411       H  0.06339957  0.02291347  0.92382817     0.15700
H1412       H  0.47124591  0.68019210  0.91930473     0.16300
C1413       C  0.53627055  0.68207831  0.65889298    -0.13300
C1414       C  0.50738239  0.68356004  0.68182589    -0.28500
H1415       H  0.06858830  0.02397762  0.67401160     0.15700
H1416       H  0.47911515  0.68561009  0.67153928     0.16300
C1417       C  0.62129493  0.82547796  0.81318376    -0.10100
C1418       C  0.59902035  0.79375165  0.81088484    -0.11700
C1419       C  0.81696676  0.95419876  0.81035024    -0.10100
C1420       C  0.77479796  0.93728172  0.81172764    -0.11700
C1421       C  0.61353892  0.95250421  0.80653133    -0.10100
C1422       C  0.62947491  0.93513680  0.80928230    -0.11700
C1423       C  0.62309382  0.82215458  0.56614074    -0.10100
C1424       C  0.59992901  0.79042905  0.56420066    -0.11700
C1425       C  0.77612598  0.93421129  0.56200132    -0.10100
C1426       C  0.81834568  0.95141883  0.56044462    -0.11700
C1427       C  0.62896176  0.93019355  0.55996522    -0.10100
C1428       C  0.61037886  0.94557518  0.55596198    -0.11700
C1429       C  0.91446505  0.77645800  0.79670486    -0.10100
C1430       C  0.93073398  0.75896923  0.79553437    -0.11700
C1431       C  0.92518123  0.88495882  0.78247673    -0.10100
C1432       C  0.94678750  0.91600931  0.78100516    -0.11700
C1433       C  0.73085770  0.76313899  0.80256046    -0.10100
C1434       C  0.77320757  0.77980012  0.80194271    -0.11700
C1435       C  0.91768049  0.74532037  0.02465066    -0.10100
C1436       C  0.90160696  0.76261841  0.02182985    -0.11700
C1437       C  0.94037565  0.91218038  0.54601154    -0.10100
C1438       C  0.91739027  0.88179032  0.55046709    -0.11700
C1439       C  0.76616362  0.77576515  0.57137399    -0.10100
C1440       C  0.72335420  0.75763914  0.56821546    -0.11700
loop_ 
_geom_bond_atom_site_label_1 
_geom_bond_atom_site_label_2 
_geom_bond_distance 
_geom_bond_site_symmetry_2 
_ccdc_geom_bond_type 
C1            C2   1.401       .  A
C1            C6   1.398       .  A
C1          C119   1.437       .  S
C2            C3   1.402       .  A
C2            H7   1.084       .  S
C3            C4   1.402       .  A
C3          C118   1.438       .  S
C4            C5   1.400       .  A
C4            H8   1.084       .  S
C5            C6   1.398       .  A
C5          C236   1.435       .  S
C6            H9   1.086       .  S
C10          C11   1.398       .  A
C10          C15   1.402       .  A
C10         C114   1.440       .  S
C11          C12   1.400       .  A
C11          H16   1.085       .  S
C12          C13   1.405       .  A
C12         C111   1.440       .  S
C13          C14   1.404       .  A
C13          H17   1.084       .  S
C14          C15   1.404       .  A
C14         C109   1.446       .  S
C15          H18   1.085       .  S
C19          C20   1.402       .  A
C19          C24   1.404       .  A
C19         C105   1.445       .  S
C20          C21   1.403       .  A
C20          H25   1.085       .  S
C21          C22   1.401       .  A
C21         C103   1.440       .  S
C22          C23   1.400       .  A
C22          H26   1.085       .  S
C23          C24   1.404       .  A
C23         C107   1.443       .  S
C24          H27   1.085       .  S
C28          C29   1.398       .  A
C28          C33   1.402       .  A
C28         C100   1.439       .  S
C29          C30   1.400       .  A
C29          H34   1.085       .  S
C30          C31   1.401       .  A
C30          C97   1.435       .  S
C31          C32   1.401       .  A
C31          H35   1.085       .  S
C32          C33   1.402       .  A
C32         C102   1.441       .  S
C33          H36   1.085       .  S
C37         C120   1.432       .  S
C37          O52   1.258       .  A
C37          O39   1.260       .  A
Tb38         O49   2.315       .  S
Tb38         O42   2.347       .  S
Tb38         O59   2.349   1_545  S
Tb38        O660   2.350   1_554  S
Tb38        O541   2.346   1_545  S
Tb38        O524   2.352   1_545  S
Tb38        O174   2.324   1_544  S
Tb38        O782   2.348       .  S
O39         Tb43   2.359       .  S
O40          C51   1.263       .  A
O40        Tb283   2.361       .  S
C41         C104   1.434       .  S
C41          O46   1.266       .  A
C41          O62   1.269       .  A
O42         C178   1.260       .  A
Tb43         O52   2.350       .  S
Tb43         O46   2.340       .  S
Tb43         O55   2.339       .  S
Tb43        O520   2.361   1_545  S
Tb43        O167   2.304   1_554  S
Tb43        O533   2.342   1_545  S
Tb43        O525   2.335   1_445  S
O44         C290   1.260       .  A
O44        Tb278   2.352       .  S
O45         C768   1.266       .  A
O45        Tb283   2.344   1_655  S
O47          C57   1.267       .  A
O47        Tb163   2.299       .  S
C48         C117   1.433       .  S
C48          O61   1.266       .  A
C48         O765   1.266       .  A
O49         C776   1.266       .  A
C50         C586   1.431       .  S
C50          O59   1.259       .  A
C50         O524   1.261       .  A
C51         C108   1.438       .  S
C51          O53   1.260       .  A
O53        Tb283   2.351       .  S
O54         C777   1.271       .  A
O54        Tb158   2.346       .  S
O55          C56   1.271       .  A
C56         O769   1.274   1_455  A
C56          C93   1.469       .  S
C57         O774   1.276   1_455  A
C57          C90   1.468       .  S
C58         C115   1.432       .  S
C58         O162   1.260       .  A
C58         O540   1.262       .  A
O60         C298   1.257       .  A
O60        Tb398   2.363       .  S
O61        Tb278   2.341       .  S
O62        Tb758   2.348   1_455  S
C63         C113   1.435       .  S
C63          O78   1.258       .  A
C63          O65   1.261       .  A
Tb64         O80   2.369       .  S
Tb64         O75   2.371       .  S
Tb64         O68   2.359       .  S
Tb64         O85   2.373   1_545  S
Tb64        O566   2.372       .  S
Tb64        O567   2.341   1_545  S
Tb64        O550   2.363   1_545  S
Tb64        O808   2.335       .  S
O65         Tb69   2.362       .  S
O66          C77   1.258       .  A
O66        Tb309   2.361       .  S
C67          C98   1.430       .  S
C67          O72   1.264       .  A
C67          O88   1.263       .  A
O68          C84   1.257       .  A
Tb69         O73   2.327       .  S
Tb69         O78   2.352       .  S
Tb69         O72   2.339       .  S
Tb69         O81   2.366       .  S
Tb69        O546   2.364   1_545  S
Tb69        O559   2.346   1_545  S
Tb69        O551   2.337   1_545  S
O70         C316   1.259       .  A
O70        Tb304   2.345       .  S
O71         C794   1.263       .  A
O71        Tb309   2.334   1_655  S
O73          C83   1.273       .  A
C74         C112   1.434       .  S
C74          O87   1.265       .  A
C74         O791   1.262       .  A
O75         C802   1.279       .  A
C76         C579   1.442       .  S
C76          O85   1.259       .  A
C76         O550   1.256       .  A
C77         C101   1.435       .  S
C77          O79   1.257       .  A
O79        Tb309   2.359       .  S
O80         C803   1.279       .  A
O81          C82   1.277       .  A
C82         O795   1.269   1_455  A
C82          C89   1.469       .  S
C83         O800   1.271   1_455  A
C83          C94   1.468       .  S
C84         C110   1.441       .  S
C84         O566   1.260       .  A
O86         C324   1.258       .  A
O86        Tb304   2.356       .  S
O87        Tb304   2.348       .  S
O88        Tb784   2.338   1_455  S
C89          C90   1.348       .  D
C89        H1291   1.086       .  S
C90          H92   1.087   1_455  S
H91        C1049   1.086       .  S
C93          C94   1.342       .  D
C93        H1295   1.087       .  S
C94          H96   1.087   1_455  S
H95        C1053   1.087       .  S
C97          C98   1.203       .  T
C99         C316   1.434       .  S
C99         C100   1.205       .  T
C101        C102   1.206       .  T
C103        C104   1.206       .  T
C105        C106   1.209       .  T
C106        C290   1.439       .  S
C107        C108   1.208       .  T
C109        C110   1.209       .  T
C111        C112   1.206       .  T
C113        C114   1.206       .  T
C115        C116   1.204       .  T
C116        C125   1.438       .  S
C117        C118   1.205       .  T
C119        C120   1.204       .  T
C121        C122   1.398       .  A
C121        C126   1.401       .  A
C121        C239   1.435       .  S
C122        C123   1.399       .  A
C122        H127   1.085       .  S
C123        C124   1.401       .  A
C123        C238   1.434       .  S
C124        C125   1.400       .  A
C124        H128   1.084       .  S
C125        C126   1.400       .  A
C126        H129   1.085       .  S
C130        C131   1.401       .  A
C130        C135   1.402       .  A
C130        C234   1.443       .  S
C131        C132   1.402       .  A
C131        H136   1.085       .  S
C132        C133   1.404       .  A
C132        C231   1.442       .  S
C133        C134   1.403       .  A
C133        H137   1.084       .  S
C134        C135   1.403       .  A
C134        C229   1.444       .  S
C135        H138   1.085       .  S
C139        C140   1.400       .  A
C139        C144   1.401       .  A
C139        C225   1.439       .  S
C140        C141   1.401       .  A
C140        H145   1.085       .  S
C141        C142   1.400       .  A
C141        C223   1.434       .  S
C142        C143   1.399       .  A
C142        H146   1.085       .  S
C143        C144   1.401       .  A
C143        C227   1.439       .  S
C144        H147   1.085       .  S
C148        C149   1.399       .  A
C148        C153   1.400       .  A
C148        C220   1.438       .  S
C149        C150   1.401       .  A
C149        H154   1.085       .  S
C150        C151   1.400       .  A
C150        C217   1.433       .  S
C151        C152   1.398       .  A
C151        H155   1.085       .  S
C152        C153   1.400       .  A
C152        C222   1.435       .  S
C153        H156   1.085       .  S
C157        C240   1.430       .  S
C157        O172   1.259       .  A
C157        O159   1.262       .  A
Tb158       O540   2.353       .  S
Tb158       O661   2.348   1_545  S
Tb158       O644   2.356   1_545  S
Tb158       O169   2.309       .  S
Tb158       O162   2.346       .  S
Tb158       O902   2.349       .  S
Tb158       O179   2.340   1_545  S
O159       Tb163   2.356       .  S
O160        C171   1.259       .  A
O160       Tb403   2.359       .  S
C161        C224   1.428       .  S
C161        O166   1.264       .  A
C161        O182   1.262       .  A
Tb163       O640   2.351   1_545  S
Tb163       O172   2.342       .  S
Tb163       O166   2.342       .  S
Tb163       O653   2.346   1_545  S
Tb163       O175   2.335       .  S
Tb163       O645   2.347   1_445  S
O164        C410   1.257       .  A
O164       Tb398   2.352       .  S
O165        C888   1.265   1_455  A
O165       Tb403   2.344       .  S
O167        C177   1.268       .  A
C168        C237   1.429       .  S
C168        O885   1.263       .  A
C168        O181   1.264       .  A
O169        C896   1.269       .  A
C170        C706   1.429       .  S
C170        O644   1.262       .  A
C170        O179   1.259       .  A
C171        C228   1.434       .  S
C171        O173   1.259       .  A
O173       Tb403   2.356       .  S
O174        C897   1.268   1_565  A
O175        C176   1.270       .  A
C176        O889   1.273       .  A
C176        C213   1.463       .  S
C177        O894   1.272   1_455  A
C177        C210   1.465   1_455  S
C178        C235   1.430       .  S
C178        O660   1.260   1_554  A
O180        C418   1.259   1_556  A
O180       Tb278   2.365   1_556  S
O181       Tb398   2.337       .  S
O182       Tb878   2.331   1_455  S
C183        C233   1.438       .  S
C183        O198   1.258       .  A
C183        O185   1.260       .  A
Tb184       O686   2.363       .  S
Tb184       O687   2.336   1_545  S
Tb184       O670   2.360   1_545  S
Tb184       O200   2.360       .  S
Tb184       O195   2.332       .  S
Tb184       O188   2.347       .  S
Tb184       O928   2.340       .  S
Tb184       O205   2.354       .  S
O185       Tb189   2.365       .  S
O186        C197   1.260       .  A
O186       Tb429   2.349       .  S
C187        C218   1.428       .  S
C187        O192   1.267       .  A
C187        O208   1.265       .  A
O188        C204   1.261       .  A
Tb189       O666   2.366   1_545  S
Tb189       O193   2.320       .  S
Tb189       O198   2.355       .  S
Tb189       O192   2.342       .  S
Tb189       O679   2.348   1_545  S
Tb189       O201   2.351       .  S
Tb189       O671   2.333   1_545  S
O190        C436   1.262       .  A
O190       Tb424   2.354       .  S
O191        C914   1.265   1_455  A
O191       Tb429   2.341       .  S
O193        C203   1.271       .  A
C194        C232   1.437       .  S
C194        O911   1.263       .  A
C194        O207   1.267       .  A
O195        C922   1.274       .  A
C196        C699   1.435       .  S
C196        O670   1.260       .  A
C196        O205   1.259   1_565  A
C197        C221   1.429       .  S
C197        O199   1.260       .  A
O199       Tb429   2.346       .  S
O200        C923   1.275       .  A
O201        C202   1.274       .  A
C202        O915   1.270   1_455  A
C202        C209   1.464       .  S
C203        O920   1.269   1_455  A
C203        C214   1.465       .  S
C204        C230   1.438       .  S
C204        O686   1.264       .  A
O206        C444   1.258       .  A
O206       Tb424   2.345       .  S
O207       Tb424   2.355       .  S
O208       Tb904   2.335   1_455  S
C209        C210   1.345   1_455  D
C209       H1411   1.087       .  S
C210        H212   1.087       .  S
H211       C1169   1.087       .  S
C213        C214   1.340       .  D
C213       H1415   1.087       .  S
C214        H216   1.087   1_455  S
H215       C1173   1.087       .  S
C217        C218   1.202       .  T
C219        C436   1.433       .  S
C219        C220   1.205       .  T
C221        C222   1.203       .  T
C223        C224   1.202       .  T
C225        C226   1.205       .  T
C226        C410   1.434       .  S
C227        C228   1.205       .  T
C229        C230   1.208       .  T
C231        C232   1.207       .  T
C233        C234   1.208       .  T
C235        C236   1.203       .  T
C237        C238   1.202       .  T
C239        C240   1.203       .  T
C241        C242   1.404       .  A
C241        C246   1.402       .  A
C241        C359   1.444       .  S
C242        C243   1.406       .  A
C242        H247   1.084       .  S
C243        C244   1.403       .  A
C243        C358   1.444       .  S
C244        C245   1.402       .  A
C244        H248   1.084       .  S
C245        C246   1.401       .  A
C245        C476   1.443       .  S
C246        H249   1.085       .  S
C250        C251   1.401       .  A
C250        C255   1.400       .  A
C250        C354   1.437       .  S
C251        C252   1.402       .  A
C251        H256   1.084       .  S
C252        C253   1.400       .  A
C252        C351   1.436       .  S
C253        C254   1.399       .  A
C253        H257   1.085       .  S
C254        C255   1.400       .  A
C254        C349   1.437       .  S
C255        H258   1.085       .  S
C259        C260   1.402       .  A
C259        C264   1.400       .  A
C259        C345   1.440       .  S
C260        C261   1.404       .  A
C260        H265   1.084       .  S
C261        C262   1.400       .  A
C261        C343   1.436       .  S
C262        C263   1.398       .  A
C262        H266   1.085       .  S
C263        C264   1.400       .  A
C263        C347   1.435       .  S
C264        H267   1.085       .  S
C268        C269   1.400       .  A
C268        C273   1.403       .  A
C268        C340   1.440       .  S
C269        C270   1.400       .  A
C269        H274   1.085       .  S
C270        C271   1.402       .  A
C270        C337   1.437       .  S
C271        C272   1.401       .  A
C271        H275   1.085       .  S
C272        C273   1.403       .  A
C272        C342   1.443       .  S
C273        H276   1.085       .  S
C277        C360   1.439       .  S
C277        O292   1.259       .  A
C277        O279   1.260       .  A
Tb278       O414   2.336   1_554  S
Tb278       O289   2.352       .  S
Tb278       O282   2.361       .  S
Tb278      O1022   2.342       .  S
Tb278       O299   2.364       .  S
O279       Tb283   2.364       .  S
O280        C291   1.260       .  A
O280       Tb523   2.349       .  S
C281        C344   1.430       .  S
C281        O286   1.264       .  A
C281        O302   1.266       .  A
O282        C418   1.258       .  A
Tb283       O407   2.336   1_554  S
Tb283       O292   2.359       .  S
Tb283       O286   2.336       .  S
Tb283       O295   2.369       .  S
O284        C530   1.260       .  A
O284       Tb518   2.363       .  S
O285       C1008   1.266       .  A
O285       Tb523   2.348   1_655  S
O287        C297   1.277       .  A
O287       Tb403   2.374       .  S
C288        C357   1.439       .  S
C288       O1005   1.268       .  A
C288        O301   1.265       .  A
O289       C1016   1.273       .  A
C290        O299   1.262       .  A
C291        C348   1.431       .  S
C291        O293   1.261       .  A
O293       Tb523   2.352       .  S
O294       C1017   1.277       .  A
O294       Tb398   2.366       .  S
O295        C296   1.276       .  A
C296       O1009   1.272   1_455  A
C296        C333   1.480       .  S
C297       O1014   1.272       .  A
C297        C330   1.482       .  S
C298        C355   1.436       .  S
C298        O402   1.257       .  A
O300        C538   1.263       .  A
O300       Tb638   2.366       .  S
O301       Tb518   2.340       .  S
O302       Tb998   2.342   1_455  S
C303        C353   1.431       .  S
C303        O318   1.258       .  A
C303        O305   1.256       .  A
Tb304       O320   2.321       .  S
Tb304       O315   2.363       .  S
Tb304       O308   2.355       .  S
Tb304      O1048   2.350       .  S
Tb304       O325   2.360       .  S
O305       Tb309   2.350       .  S
O306        C317   1.261       .  A
O306       Tb549   2.351       .  S
C307        C338   1.431       .  S
C307        O312   1.264       .  A
C307        O328   1.263       .  A
O308        C324   1.258       .  A
Tb309       O313   2.355       .  S
Tb309       O318   2.360       .  S
Tb309       O312   2.339       .  S
Tb309       O321   2.358       .  S
O310        C556   1.263       .  A
O310       Tb544   2.361       .  S
O311       C1034   1.265       .  A
O311       Tb549   2.347   1_655  S
O313        C323   1.275       .  A
C314        C352   1.431       .  S
C314       O1031   1.264       .  A
C314        O327   1.264       .  A
O315       C1042   1.276       .  A
C316        O325   1.262       .  A
C317        C341   1.437       .  S
C317        O319   1.262       .  A
O319       Tb549   2.357       .  S
O320       C1043   1.270       .  A
O321        C322   1.276       .  A
C322       O1035   1.274   1_455  A
C322        C329   1.474       .  S
C323       O1040   1.272   1_455  A
C323        C334   1.473   1_455  S
C324        C350   1.431       .  S
O326        C564   1.261       .  A
O326       Tb544   2.354       .  S
O327       Tb544   2.342       .  S
O328      Tb1024   2.335   1_455  S
C329        C330   1.348       .  D
C329        H811   1.087   1_455  S
C330        H332   1.086       .  S
H331       C1289   1.087       .  S
C333        C334   1.346   1_455  D
C333        H815   1.086       .  S
C334        H336   1.087       .  S
H335       C1293   1.087       .  S
C337        C338   1.204       .  T
C339        C556   1.434       .  S
C339        C340   1.206       .  T
C341        C342   1.207       .  T
C343        C344   1.204       .  T
C345        C346   1.206       .  T
C346        C530   1.435       .  S
C347        C348   1.203       .  T
C349        C350   1.204       .  T
C351        C352   1.204       .  T
C353        C354   1.204       .  T
C355        C356   1.206       .  T
C356        C365   1.441       .  S
C357        C358   1.208       .  T
C359        C360   1.208       .  T
C361        C362   1.402       .  A
C361        C366   1.403       .  A
C361        C479   1.443       .  S
C362        C363   1.403       .  A
C362        H367   1.085       .  S
C363        C364   1.401       .  A
C363        C478   1.439       .  S
C364        C365   1.400       .  A
C364        H368   1.085       .  S
C365        C366   1.403       .  A
C366        H369   1.085       .  S
C370        C371   1.401       .  A
C370        C375   1.400       .  A
C370        C474   1.437       .  S
C371        C372   1.401       .  A
C371        H376   1.084       .  S
C372        C373   1.401       .  A
C372        C471   1.437       .  S
C373        C374   1.399       .  A
C373        H377   1.085       .  S
C374        C375   1.399       .  A
C374        C469   1.437       .  S
C375        H378   1.085       .  S
C379        C380   1.401       .  A
C379        C384   1.403       .  A
C379        C465   1.442       .  S
C380        C381   1.401       .  A
C380        H385   1.085       .  S
C381        C382   1.403       .  A
C381        C463   1.439       .  S
C382        C383   1.401       .  A
C382        H386   1.085       .  S
C383        C384   1.403       .  A
C383        C467   1.444       .  S
C384        H387   1.085       .  S
C388        C389   1.399       .  A
C388        C393   1.402       .  A
C388        C460   1.437       .  S
C389        C390   1.400       .  A
C389        H394   1.085       .  S
C390        C391   1.399       .  A
C390        C457   1.431       .  S
C391        C392   1.397       .  A
C391        H395   1.085       .  S
C392        C393   1.400       .  A
C392        C462   1.437       .  S
C393        H396   1.085       .  S
C397        C480   1.438       .  S
C397        O412   1.263       .  A
C397        O399   1.260       .  A
Tb398       O409   2.362       .  S
Tb398       O402   2.358       .  S
Tb398      O1142   2.340       .  S
Tb398       O419   2.363       .  S
O399       Tb403   2.351       .  S
O400        C411   1.258       .  A
O400       Tb643   2.373       .  S
C401        C464   1.433       .  S
C401        O406   1.265       .  A
C401        O422   1.264       .  A
Tb403       O412   2.360       .  S
Tb403       O406   2.342       .  S
Tb403       O415   2.338       .  S
O404        C650   1.260       .  A
O404       Tb638   2.359       .  S
O405       C1128   1.263       .  A
O405       Tb643   2.332   1_655  S
O407        C417   1.274   1_455  A
C408        C477   1.434       .  S
C408       O1125   1.266       .  A
C408        O421   1.264       .  A
O409       C1136   1.276       .  A
C410        O419   1.259       .  A
C411        C468   1.439       .  S
C411        O413   1.255       .  A
O413       Tb643   2.360       .  S
O414       C1137   1.274       .  A
O415        C416   1.275       .  A
C416       O1129   1.268   1_455  A
C416        C453   1.476       .  S
C417       O1134   1.270       .  A
C417        C450   1.478       .  S
C418        C475   1.439       .  S
O420        C658   1.263       .  A
O420       Tb518   2.359       .  S
O421       Tb638   2.337       .  S
O422      Tb1118   2.341   1_455  S
C423        C473   1.431       .  S
C423        O438   1.257       .  A
C423        O425   1.260       .  A
Tb424       O440   2.343       .  S
Tb424       O435   2.325       .  S
Tb424       O428   2.359       .  S
Tb424      O1168   2.342       .  S
Tb424       O445   2.350       .  S
O425       Tb429   2.359       .  S
O426        C437   1.259       .  A
O426       Tb669   2.356       .  S
C427        C458   1.425       .  S
C427        O432   1.262       .  A
C427        O448   1.264       .  A
O428        C444   1.260       .  A
Tb429       O433   2.313       .  S
Tb429       O438   2.344       .  S
Tb429       O432   2.333       .  S
Tb429       O441   2.318       .  S
O430        C676   1.257       .  A
O430       Tb664   2.352       .  S
O431       C1154   1.265   1_455  A
O431       Tb669   2.343       .  S
O433        C443   1.268       .  A
C434        C472   1.432       .  S
C434       O1151   1.264       .  A
C434        O447   1.264       .  A
O435       C1162   1.264       .  A
C436        O445   1.259       .  A
C437        C461   1.432       .  S
C437        O439   1.259       .  A
O439       Tb669   2.355       .  S
O440       C1163   1.273       .  A
O441        C442   1.265       .  A
C442       O1155   1.277   1_455  A
C442        C449   1.471       .  S
C443       O1160   1.283   1_455  A
C443        C454   1.471       .  S
C444        C470   1.431       .  S
O446        C684   1.258       .  A
O446       Tb664   2.371       .  S
O447       Tb664   2.337       .  S
O448      Tb1144   2.336   1_455  S
C449        C450   1.341   1_455  D
C449        H931   1.088       .  S
C450        H452   1.086       .  S
H451       C1409   1.087       .  S
C453        C454   1.338       .  D
C453        H935   1.087   1_455  S
C454        H456   1.088       .  S
H455       C1413   1.087       .  S
C457        C458   1.200       .  T
C459        C676   1.431       .  S
C459        C460   1.204       .  T
C461        C462   1.204       .  T
C463        C464   1.205       .  T
C465        C466   1.207       .  T
C466        C650   1.437       .  S
C467        C468   1.208       .  T
C469        C470   1.204       .  T
C471        C472   1.204       .  T
C473        C474   1.204       .  T
C475        C476   1.208       .  T
C477        C478   1.205       .  T
C479        C480   1.208       .  T
C481        C482   1.400       .  A
C481        C486   1.401       .  A
C481        C599   1.440       .  S
C482        C483   1.401       .  A
C482        H487   1.085       .  S
C483        C484   1.401       .  A
C483        C598   1.435       .  S
C484        C485   1.399       .  A
C484        H488   1.085       .  S
C485        C486   1.402       .  A
C485        C716   1.439       .  S
C486        H489   1.085       .  S
C490        C491   1.400       .  A
C490        C495   1.402       .  A
C490        C594   1.438       .  S
C491        C492   1.400       .  A
C491        H496   1.085       .  S
C492        C493   1.401       .  A
C492        C591   1.436       .  S
C493        C494   1.400       .  A
C493        H497   1.085       .  S
C494        C495   1.401       .  A
C494        C589   1.440       .  S
C495        H498   1.085       .  S
C499        C500   1.399       .  A
C499        C504   1.400       .  A
C499        C585   1.437       .  S
C500        C501   1.400       .  A
C500        H505   1.085       .  S
C501        C502   1.402       .  A
C501        C583   1.434       .  S
C502        C503   1.400       .  A
C502        H506   1.084       .  S
C503        C504   1.401       .  A
C503        C587   1.439       .  S
C504        H507   1.085       .  S
C508        C509   1.403       .  A
C508        C513   1.405       .  A
C508        C580   1.447       .  S
C509        C510   1.404       .  A
C509        H514   1.085       .  S
C510        C511   1.401       .  A
C510        C577   1.441       .  S
C511        C512   1.400       .  A
C511        H515   1.085       .  S
C512        C513   1.405       .  A
C512        C582   1.443       .  S
C513        H516   1.085       .  S
C517        C600   1.436       .  S
C517        O532   1.261       .  A
C517        O519   1.260       .  A
Tb518       O654   2.356   1_554  S
Tb518       O529   2.327       .  S
Tb518       O522   2.343       .  S
Tb518      O1262   2.336       .  S
Tb518       O539   2.354       .  S
O519       Tb523   2.353       .  S
O520        C531   1.263       .  A
C521        C584   1.429       .  S
C521        O526   1.267       .  A
C521        O542   1.263       .  A
O522        C658   1.260       .  A
Tb523       O647   2.325   1_554  S
Tb523       O532   2.357       .  S
Tb523       O526   2.348       .  S
Tb523       O535   2.321       .  S
O525       C1248   1.263       .  A
O527        C537   1.279       .  A
O527       Tb643   2.373       .  S
C528        C597   1.429       .  S
C528       O1245   1.264       .  A
C528        O541   1.266       .  A
O529       C1256   1.272       .  A
C530        O539   1.258       .  A
C531        C588   1.433       .  S
C531        O533   1.259       .  A
O534       C1257   1.275       .  A
O534       Tb638   2.360       .  S
O535        C536   1.268       .  A
C536       O1249   1.276   1_455  A
C536        C573   1.467       .  S
C537       O1254   1.268   1_455  A
C537        C570   1.468       .  S
C538        C595   1.439       .  S
C538        O642   1.259       .  A
O542      Tb1238   2.331   1_455  S
C543        C593   1.432       .  S
C543        O558   1.261       .  A
C543        O545   1.262       .  A
Tb544       O560   2.342       .  S
Tb544       O555   2.307       .  S
Tb544       O548   2.352       .  S
Tb544      O1288   2.344       .  S
Tb544       O565   2.345       .  S
O545       Tb549   2.352       .  S
O546        C557   1.263       .  A
C547        C578   1.435       .  S
C547        O552   1.265       .  A
C547        O568   1.265       .  A
O548        C564   1.260       .  A
Tb549       O553   2.315       .  S
Tb549       O558   2.346       .  S
Tb549       O552   2.346       .  S
Tb549       O561   2.346       .  S
O551       C1274   1.263   1_455  A
O553        C563   1.272   1_455  A
C554        C592   1.431       .  S
C554       O1271   1.265       .  A
C554        O567   1.266       .  A
O555       C1282   1.269       .  A
C556        O565   1.259       .  A
C557        C581   1.437       .  S
C557        O559   1.259       .  A
O560       C1283   1.272       .  A
O561        C562   1.270       .  A
C562       O1275   1.275   1_455  A
C562        C569   1.477       .  S
C563       O1280   1.275       .  A
C563        C574   1.477       .  S
C564        C590   1.434       .  S
O568      Tb1264   2.341   1_455  S
C569        C570   1.339       .  D
C569       H1051   1.086       .  S
C570        H572   1.088   1_455  S
H571        C809   1.088       .  S
C573        C574   1.343   1_455  D
C573       H1055   1.087       .  S
C574        H576   1.086       .  S
H575        C813   1.087       .  S
C577        C578   1.206       .  T
C579        C580   1.210       .  T
C581        C582   1.208       .  T
C583        C584   1.202       .  T
C585        C586   1.204       .  T
C587        C588   1.205       .  T
C589        C590   1.206       .  T
C591        C592   1.204       .  T
C593        C594   1.204       .  T
C595        C596   1.209       .  T
C596        C605   1.445       .  S
C597        C598   1.203       .  T
C599        C600   1.206       .  T
C601        C602   1.401       .  A
C601        C606   1.403       .  A
C601        C719   1.444       .  S
C602        C603   1.402       .  A
C602        H607   1.085       .  S
C603        C604   1.403       .  A
C603        C718   1.441       .  S
C604        C605   1.402       .  A
C604        H608   1.084       .  S
C605        C606   1.404       .  A
C606        H609   1.085       .  S
C610        C611   1.402       .  A
C610        C615   1.403       .  A
C610        C714   1.444       .  S
C611        C612   1.404       .  A
C611        H616   1.085       .  S
C612        C613   1.402       .  A
C612        C711   1.440       .  S
C613        C614   1.401       .  A
C613        H617   1.085       .  S
C614        C615   1.403       .  A
C614        C709   1.443       .  S
C615        H618   1.085       .  S
C619        C620   1.397       .  A
C619        C624   1.400       .  A
C619        C705   1.434       .  S
C620        C621   1.398       .  A
C620        H625   1.085       .  S
C621        C622   1.399       .  A
C621        C703   1.428       .  S
C622        C623   1.398       .  A
C622        H626   1.085       .  S
C623        C624   1.400       .  A
C623        C707   1.435       .  S
C624        H627   1.085       .  S
C628        C629   1.399       .  A
C628        C633   1.402       .  A
C628        C700   1.440       .  S
C629        C630   1.400       .  A
C629        H634   1.085       .  S
C630        C631   1.404       .  A
C630        C697   1.438       .  S
C631        C632   1.402       .  A
C631        H635   1.084       .  S
C632        C633   1.403       .  A
C632        C702   1.444       .  S
C633        H636   1.085       .  S
C637        C720   1.439       .  S
C637        O652   1.258       .  A
C637        O639   1.257       .  A
Tb638       O649   2.328       .  S
Tb638       O642   2.349       .  S
Tb638      O1382   2.338       .  S
Tb638       O659   2.358       .  S
O639       Tb643   2.362       .  S
O640        C651   1.260       .  A
C641        C704   1.422       .  S
C641        O646   1.264       .  A
C641        O662   1.263       .  A
Tb643       O652   2.368       .  S
Tb643       O646   2.335       .  S
Tb643       O655   2.376       .  S
O645       C1368   1.265       .  A
O647        C657   1.268       .  A
C648        C717   1.436       .  S
C648       O1365   1.264       .  A
C648        O661   1.265       .  A
O649       C1376   1.273       .  A
C650        O659   1.260       .  A
C651        C708   1.430       .  S
C651        O653   1.260       .  A
O654       C1377   1.274       .  A
O655        C656   1.280       .  A
C656       O1369   1.270   1_455  A
C656        C693   1.472       .  S
C657       O1374   1.278   1_455  A
C657        C690   1.474       .  S
C658        C715   1.433       .  S
O662      Tb1358   2.328   1_455  S
C663        C713   1.439       .  S
C663        O678   1.264       .  A
C663        O665   1.262       .  A
Tb664       O680   2.329       .  S
Tb664       O675   2.338       .  S
Tb664       O668   2.359       .  S
Tb664      O1408   2.336       .  S
Tb664       O685   2.359       .  S
O665       Tb669   2.351       .  S
O666        C677   1.263       .  A
C667        C698   1.432       .  S
C667        O672   1.265       .  A
C667        O688   1.264       .  A
O668        C684   1.255       .  A
Tb669       O673   2.362       .  S
Tb669       O678   2.360       .  S
Tb669       O672   2.341       .  S
Tb669       O681   2.336       .  S
O671       C1394   1.263   1_455  A
O673        C683   1.274       .  A
C674        C712   1.435       .  S
C674       O1391   1.266       .  A
C674        O687   1.264       .  A
O675       C1402   1.273       .  A
C676        O685   1.258       .  A
C677        C701   1.439       .  S
C677        O679   1.259       .  A
O680       C1403   1.270       .  A
O681        C682   1.275       .  A
C682       O1395   1.273   1_455  A
C682        C689   1.477       .  S
C683       O1400   1.275       .  A
C683        C694   1.483       .  S
C684        C710   1.439       .  S
O688      Tb1384   2.338   1_455  S
C689        C690   1.342       .  D
C689       H1171   1.086   1_455  S
C690        H692   1.087       .  S
H691        C929   1.087       .  S
C693        C694   1.343       .  D
C693       H1175   1.087   1_455  S
C694        H696   1.086       .  S
H695        C933   1.086       .  S
C697        C698   1.204       .  T
C699        C700   1.206       .  T
C701        C702   1.208       .  T
C703        C704   1.199       .  T
C705        C706   1.202       .  T
C707        C708   1.203       .  T
C709        C710   1.208       .  T
C711        C712   1.206       .  T
C713        C714   1.208       .  T
C715        C716   1.205       .  T
C717        C718   1.206       .  T
C719        C720   1.208       .  T
C721        C722   1.403       .  A
C721        C726   1.403       .  A
C721        C839   1.445       .  S
C722        C723   1.404       .  A
C722        H727   1.085       .  S
C723        C724   1.400       .  A
C723        C838   1.440       .  S
C724        C725   1.399       .  A
C724        H728   1.085       .  S
C725        C726   1.403       .  A
C725        C956   1.441       .  S
C726        H729   1.085       .  S
C730        C731   1.397       .  A
C730        C735   1.400       .  A
C730        C834   1.434       .  S
C731        C732   1.399       .  A
C731        H736   1.085       .  S
C732        C733   1.401       .  A
C732        C831   1.433       .  S
C733        C734   1.400       .  A
C733        H737   1.084       .  S
C734        C735   1.400       .  A
C734        C829   1.437       .  S
C735        H738   1.085       .  S
C739        C740   1.398       .  A
C739        C744   1.401       .  A
C739        C825   1.435       .  S
C740        C741   1.399       .  A
C740        H745   1.085       .  S
C741        C742   1.399       .  A
C741        C823   1.431       .  S
C742        C743   1.398       .  A
C742        H746   1.085       .  S
C743        C744   1.400       .  A
C743        C827   1.436       .  S
C744        H747   1.085       .  S
C748        C749   1.399       .  A
C748        C753   1.402       .  A
C748        C820   1.439       .  S
C749        C750   1.400       .  A
C749        H754   1.085       .  S
C750        C751   1.401       .  A
C750        C817   1.436       .  S
C751        C752   1.401       .  A
C751        H755   1.084       .  S
C752        C753   1.403       .  A
C752        C822   1.439       .  S
C753        H756   1.085       .  S
C757        C840   1.440       .  S
C757        O772   1.259       .  A
C757        O759   1.257       .  A
Tb758      O1380   2.357       .  S
Tb758      O1261   2.344   1_545  S
Tb758      O1244   2.364   1_545  S
Tb758       O894   2.349   1_554  S
Tb758       O769   2.329       .  S
Tb758       O762   2.349       .  S
Tb758       O779   2.362   1_545  S
O759       Tb763   2.361       .  S
O760        C771   1.258       .  A
O760      Tb1003   2.353       .  S
C761        C824   1.426       .  S
C761        O766   1.262       .  A
C761        O782   1.266       .  A
O762        C898   1.261       .  A
Tb763      O1240   2.363   1_545  S
Tb763       O887   2.370   1_554  S
Tb763       O772   2.367       .  S
Tb763       O766   2.325       .  S
Tb763      O1253   2.364   1_545  S
Tb763       O775   2.378       .  S
Tb763      O1245   2.333   1_545  S
O764       C1010   1.258       .  A
O764       Tb998   2.352       .  S
O765      Tb1003   2.343       .  S
O767        C777   1.275       .  A
O767       Tb883   2.336       .  S
C768        C837   1.434       .  S
C768        O781   1.265       .  A
C770       C1306   1.441       .  S
C770       O1244   1.260       .  A
C770        O779   1.260       .  A
C771        C828   1.431       .  S
C771        O773   1.259       .  A
O773      Tb1003   2.356       .  S
O774       Tb878   2.363       .  S
O775        C776   1.281       .  A
C776        C813   1.472       .  S
C777        C810   1.480       .  S
C778        C835   1.434       .  S
C778        O882   1.260       .  A
C778       O1260   1.263       .  A
O780       C1018   1.260       .  A
O780      Tb1118   2.346       .  S
O781       Tb998   2.343       .  S
C783        C833   1.429       .  S
C783        O798   1.255       .  A
C783        O785   1.259       .  A
Tb784      O1286   2.353       .  S
Tb784      O1287   2.339   1_545  S
Tb784      O1270   2.359   1_545  S
Tb784       O800   2.339       .  S
Tb784       O795   2.303       .  S
Tb784       O788   2.350       .  S
Tb784       O805   2.343   1_545  S
O785       Tb789   2.362       .  S
O786        C797   1.261       .  A
O786      Tb1029   2.348       .  S
C787        C818   1.431       .  S
C787        O792   1.265       .  A
C787        O808   1.263       .  A
O788        C804   1.260       .  A
Tb789      O1266   2.342   1_545  S
Tb789       O793   2.313       .  S
Tb789       O798   2.345       .  S
Tb789       O792   2.341       .  S
Tb789      O1279   2.363   1_545  S
Tb789       O801   2.323       .  S
Tb789      O1271   2.339   1_545  S
O790       C1036   1.260       .  A
O790      Tb1024   2.365       .  S
O791      Tb1029   2.336       .  S
O793        C803   1.266       .  A
C794        C832   1.427       .  S
C794        O807   1.263       .  A
C796       C1299   1.433       .  S
C796       O1270   1.262       .  A
C796        O805   1.259       .  A
C797        C821   1.434       .  S
C797        O799   1.261       .  A
O799      Tb1029   2.356       .  S
O801        C802   1.270       .  A
C802        C809   1.474       .  S
C803        C814   1.470       .  S
C804        C830   1.432       .  S
C804       O1286   1.261       .  A
O806       C1044   1.255       .  A
O806      Tb1024   2.345       .  S
O807      Tb1024   2.334       .  S
C809        C810   1.341       .  D
C810        H812   1.087       .  S
C813        C814   1.336       .  D
C814        H816   1.088   1_545  S
C817        C818   1.204       .  T
C819       C1036   1.433       .  S
C819        C820   1.205       .  T
C821        C822   1.205       .  T
C823        C824   1.201       .  T
C825        C826   1.202       .  T
C826       C1010   1.429       .  S
C827        C828   1.204       .  T
C829        C830   1.204       .  T
C831        C832   1.201       .  T
C833        C834   1.202       .  T
C835        C836   1.206       .  T
C836        C845   1.440       .  S
C837        C838   1.206       .  T
C839        C840   1.209       .  T
C841        C842   1.402       .  A
C841        C846   1.403       .  A
C841        C959   1.444       .  S
C842        C843   1.403       .  A
C842        H847   1.085       .  S
C843        C844   1.400       .  A
C843        C958   1.437       .  S
C844        C845   1.398       .  A
C844        H848   1.085       .  S
C845        C846   1.403       .  A
C846        H849   1.085       .  S
C850        C851   1.396       .  A
C850        C855   1.401       .  A
C850        C954   1.434       .  S
C851        C852   1.398       .  A
C851        H856   1.085       .  S
C852        C853   1.397       .  A
C852        C951   1.427       .  S
C853        C854   1.397       .  A
C853        H857   1.085       .  S
C854        C855   1.402       .  A
C854        C949   1.434       .  S
C855        H858   1.085       .  S
C859        C860   1.402       .  A
C859        C864   1.403       .  A
C859        C945   1.441       .  S
C860        C861   1.403       .  A
C860        H865   1.084       .  S
C861        C862   1.399       .  A
C861        C943   1.438       .  S
C862        C863   1.398       .  A
C862        H866   1.085       .  S
C863        C864   1.402       .  A
C863        C947   1.438       .  S
C864        H867   1.085       .  S
C868        C869   1.401       .  A
C868        C873   1.402       .  A
C868        C940   1.443       .  S
C869        C870   1.403       .  A
C869        H874   1.084       .  S
C870        C871   1.402       .  A
C870        C937   1.441       .  S
C871        C872   1.402       .  A
C871        H875   1.085       .  S
C872        C873   1.402       .  A
C872        C942   1.441       .  S
C873        H876   1.085       .  S
C877        C960   1.439       .  S
C877        O892   1.259       .  A
C877        O879   1.260       .  A
Tb878      O1260   2.357       .  S
Tb878      O1381   2.329   1_545  S
Tb878      O1364   2.359   1_545  S
Tb878       O889   2.325   1_655  S
Tb878       O882   2.344       .  S
Tb878       O899   2.352       .  S
O879       Tb883   2.362       .  S
O880        C891   1.256       .  A
O880      Tb1123   2.346       .  S
C881        C944   1.433       .  S
C881        O886   1.263       .  A
C881        O902   1.266       .  A
Tb883      O1360   2.360   1_545  S
Tb883       O892   2.360       .  S
Tb883       O886   2.330       .  S
Tb883      O1373   2.345   1_545  S
Tb883       O895   2.372       .  S
Tb883      O1365   2.339   1_545  S
O884       C1130   1.262       .  A
O884      Tb1118   2.345       .  S
O885      Tb1123   2.336       .  S
O887        C897   1.276       .  A
C888        C957   1.432       .  S
C888        O901   1.263       .  A
C890       C1426   1.435       .  S
C890       O1364   1.261       .  A
C890        O899   1.259   1_565  A
C891        C948   1.431       .  S
C891        O893   1.260       .  A
O893      Tb1123   2.363       .  S
O895        C896   1.278       .  A
C896        C933   1.475       .  S
C897        C930   1.471       .  S
C898        C955   1.435       .  S
C898       O1380   1.262       .  A
O900       C1138   1.264       .  A
O900       Tb998   2.362       .  S
O901      Tb1118   2.336       .  S
C903        C953   1.428       .  S
C903        O918   1.257       .  A
C903        O905   1.260       .  A
Tb904      O1406   2.352       .  S
Tb904      O1407   2.334   1_545  S
Tb904      O1390   2.357   1_545  S
Tb904       O920   2.335       .  S
Tb904       O915   2.309       .  S
Tb904       O908   2.338       .  S
Tb904       O925   2.350       .  S
O905       Tb909   2.359       .  S
O906        C917   1.260       .  A
O906      Tb1149   2.363       .  S
C907        C938   1.436       .  S
C907        O912   1.265       .  A
C907        O928   1.265       .  A
O908        C924   1.260       .  A
Tb909      O1386   2.360   1_545  S
Tb909       O913   2.314       .  S
Tb909       O918   2.344       .  S
Tb909       O912   2.346       .  S
Tb909      O1399   2.343   1_545  S
Tb909       O921   2.351       .  S
Tb909      O1391   2.348   1_545  S
O910       C1156   1.256       .  A
O910      Tb1144   2.358       .  S
O911      Tb1149   2.334       .  S
O913        C923   1.269       .  A
C914        C952   1.422       .  S
C914        O927   1.263       .  A
C916       C1419   1.431       .  S
C916       O1390   1.260       .  A
C916        O925   1.258   1_565  A
C917        C941   1.436       .  S
C917        O919   1.258       .  A
O919      Tb1149   2.353       .  S
O921        C922   1.272       .  A
C922        C929   1.476       .  S
C923        C934   1.474       .  S
C924        C950   1.428       .  S
C924       O1406   1.262       .  A
O926       C1164   1.258       .  A
O926      Tb1144   2.358       .  S
O927      Tb1144   2.326       .  S
C929        C930   1.343       .  D
C930        H932   1.087   1_545  S
C933        C934   1.350       .  D
C934        H936   1.086       .  S
C937        C938   1.206       .  T
C939       C1156   1.438       .  S
C939        C940   1.208       .  T
C941        C942   1.206       .  T
C943        C944   1.205       .  T
C945        C946   1.206       .  T
C946       C1130   1.435       .  S
C947        C948   1.204       .  T
C949        C950   1.202       .  T
C951        C952   1.198       .  T
C953        C954   1.202       .  T
C955        C956   1.206       .  T
C957        C958   1.204       .  T
C959        C960   1.208       .  T
C961        C962   1.400       .  A
C961        C966   1.404       .  A
C961       C1079   1.442       .  S
C962        C963   1.400       .  A
C962        H967   1.085       .  S
C963        C964   1.402       .  A
C963       C1078   1.438       .  S
C964        C965   1.401       .  A
C964        H968   1.085       .  S
C965        C966   1.404       .  A
C965       C1196   1.444       .  S
C966        H969   1.085       .  S
C970        C971   1.402       .  A
C970        C975   1.402       .  A
C970       C1074   1.442       .  S
C971        C972   1.403       .  A
C971        H976   1.084       .  S
C972        C973   1.399       .  A
C972       C1071   1.436       .  S
C973        C974   1.398       .  A
C973        H977   1.085       .  S
C974        C975   1.402       .  A
C974       C1069   1.438       .  S
C975        H978   1.085       .  S
C979        C980   1.401       .  A
C979        C984   1.402       .  A
C979       C1065   1.442       .  S
C980        C981   1.401       .  A
C980        H985   1.085       .  S
C981        C982   1.402       .  A
C981       C1063   1.437       .  S
C982        C983   1.400       .  A
C982        H986   1.085       .  S
C983        C984   1.402       .  A
C983       C1067   1.441       .  S
C984        H987   1.085       .  S
C988        C989   1.403       .  A
C988        C993   1.402       .  A
C988       C1060   1.443       .  S
C989        C990   1.403       .  A
C989        H994   1.084       .  S
C990        C991   1.400       .  A
C990       C1057   1.438       .  S
C991        C992   1.398       .  A
C991        H995   1.085       .  S
C992        C993   1.402       .  A
C992       C1062   1.438       .  S
C993        H996   1.085       .  S
C997       C1080   1.437       .  S
C997       O1012   1.263       .  A
C997        O999   1.260       .  A
Tb998      O1134   2.347   1_554  S
Tb998      O1009   2.319       .  S
Tb998      O1002   2.347       .  S
Tb998      O1019   2.352       .  S
O999      Tb1003   2.350       .  S
O1000      C1011   1.263       .  A
O1000     Tb1243   2.358       .  S
C1001      C1064   1.431       .  S
C1001      O1006   1.267       .  A
C1001      O1022   1.268       .  A
O1002      C1138   1.260       .  A
Tb1003     O1127   2.349   1_554  S
Tb1003     O1012   2.360       .  S
Tb1003     O1006   2.338       .  S
Tb1003     O1015   2.324       .  S
O1004      C1250   1.257       .  A
O1004     Tb1238   2.359       .  S
O1005     Tb1243   2.352       .  S
O1007      C1017   1.271       .  A
O1007     Tb1123   2.337       .  S
C1008      C1077   1.433       .  S
C1008      O1021   1.266       .  A
C1010      O1019   1.259       .  A
C1011      C1068   1.435       .  S
C1011      O1013   1.260       .  A
O1013     Tb1243   2.347       .  S
O1014     Tb1118   2.318   1_455  S
O1015      C1016   1.272       .  A
C1016      C1053   1.473       .  S
C1017      C1050   1.476       .  S
C1018      C1075   1.428       .  S
C1018      O1122   1.260       .  A
O1020      C1258   1.255       .  A
O1020     Tb1358   2.349       .  S
O1021     Tb1238   2.337       .  S
C1023      C1073   1.437       .  S
C1023      O1038   1.263       .  A
C1023      O1025   1.263       .  A
Tb1024     O1040   2.337       .  S
Tb1024     O1035   2.342       .  S
Tb1024     O1028   2.368       .  S
Tb1024     O1045   2.348       .  S
O1025     Tb1029   2.350       .  S
O1026      C1037   1.263       .  A
O1026     Tb1269   2.358       .  S
C1027      C1058   1.433       .  S
C1027      O1032   1.264       .  A
C1027      O1048   1.267       .  A
O1028      C1044   1.260       .  A
Tb1029     O1033   2.349       .  S
Tb1029     O1038   2.354       .  S
Tb1029     O1032   2.333       .  S
Tb1029     O1041   2.334       .  S
O1030      C1276   1.260       .  A
O1030     Tb1264   2.361       .  S
O1031     Tb1269   2.339       .  S
O1033      C1043   1.272       .  A
C1034      C1072   1.430       .  S
C1034      O1047   1.262       .  A
C1036      O1045   1.256       .  A
C1037      C1061   1.432       .  S
C1037      O1039   1.260       .  A
O1039     Tb1269   2.340       .  S
O1041      C1042   1.276       .  A
C1042      C1049   1.480       .  S
C1043      C1054   1.471       .  S
C1044      C1070   1.432       .  S
O1046      C1284   1.263       .  A
O1046     Tb1264   2.355       .  S
O1047     Tb1264   2.330       .  S
C1049      C1050   1.344       .  D
C1050      H1052   1.087       .  S
C1053      C1054   1.346       .  D
C1054      H1056   1.086       .  S
C1057      C1058   1.205       .  T
C1059      C1276   1.438       .  S
C1059      C1060   1.208       .  T
C1061      C1062   1.205       .  T
C1063      C1064   1.204       .  T
C1065      C1066   1.207       .  T
C1066      C1250   1.437       .  S
C1067      C1068   1.206       .  T
C1069      C1070   1.204       .  T
C1071      C1072   1.203       .  T
C1073      C1074   1.207       .  T
C1075      C1076   1.202       .  T
C1076      C1085   1.434       .  S
C1077      C1078   1.205       .  T
C1079      C1080   1.207       .  T
C1081      C1082   1.398       .  A
C1081      C1086   1.401       .  A
C1081      C1199   1.436       .  S
C1082      C1083   1.399       .  A
C1082      H1087   1.085       .  S
C1083      C1084   1.397       .  A
C1083      C1198   1.429       .  S
C1084      C1085   1.397       .  A
C1084      H1088   1.085       .  S
C1085      C1086   1.401       .  A
C1086      H1089   1.085       .  S
C1090      C1091   1.402       .  A
C1090      C1095   1.404       .  A
C1090      C1194   1.443       .  S
C1091      C1092   1.402       .  A
C1091      H1096   1.085       .  S
C1092      C1093   1.401       .  A
C1092      C1191   1.438       .  S
C1093      C1094   1.400       .  A
C1093      H1097   1.085       .  S
C1094      C1095   1.403       .  A
C1094      C1189   1.442       .  S
C1095      H1098   1.085       .  S
C1099      C1100   1.399       .  A
C1099      C1104   1.401       .  A
C1099      C1185   1.438       .  S
C1100      C1101   1.401       .  A
C1100      H1105   1.085       .  S
C1101      C1102   1.401       .  A
C1101      C1183   1.436       .  S
C1102      C1103   1.400       .  A
C1102      H1106   1.084       .  S
C1103      C1104   1.401       .  A
C1103      C1187   1.439       .  S
C1104      H1107   1.085       .  S
C1108      C1109   1.401       .  A
C1108      C1113   1.404       .  A
C1108      C1180   1.443       .  S
C1109      C1110   1.401       .  A
C1109      H1114   1.085       .  S
C1110      C1111   1.401       .  A
C1110      C1177   1.438       .  S
C1111      C1112   1.400       .  A
C1111      H1115   1.085       .  S
C1112      C1113   1.403       .  A
C1112      C1182   1.442       .  S
C1113      H1116   1.085       .  S
C1117      C1200   1.430       .  S
C1117      O1132   1.256       .  A
C1117      O1119   1.260       .  A
Tb1118     O1129   2.338       .  S
Tb1118     O1122   2.348       .  S
Tb1118     O1139   2.353       .  S
O1119     Tb1123   2.364       .  S
O1120      C1131   1.260       .  A
O1120     Tb1363   2.351       .  S
C1121      C1184   1.431       .  S
C1121      O1126   1.263       .  A
C1121      O1142   1.265       .  A
Tb1123     O1132   2.342       .  S
Tb1123     O1126   2.336       .  S
Tb1123     O1135   2.334       .  S
O1124      C1370   1.260       .  A
O1124     Tb1358   2.366       .  S
O1125     Tb1363   2.348       .  S
O1127      C1137   1.271       .  A
C1128      C1197   1.423       .  S
C1128      O1141   1.264       .  A
C1130      O1139   1.264       .  A
C1131      C1188   1.433       .  S
C1131      O1133   1.261       .  A
O1133     Tb1363   2.356       .  S
O1135      C1136   1.270       .  A
C1136      C1173   1.476       .  S
C1137      C1170   1.478       .  S
C1138      C1195   1.438       .  S
O1140      C1378   1.259       .  A
O1140     Tb1238   2.362       .  S
O1141     Tb1358   2.330       .  S
C1143      C1193   1.438       .  S
C1143      O1158   1.258       .  A
C1143      O1145   1.259       .  A
Tb1144     O1160   2.387       .  S
Tb1144     O1155   2.380       .  S
Tb1144     O1148   2.360       .  S
Tb1144     O1165   2.369       .  S
O1145     Tb1149   2.363       .  S
O1146      C1157   1.256       .  A
O1146     Tb1389   2.347       .  S
C1147      C1178   1.432       .  S
C1147      O1152   1.266       .  A
C1147      O1168   1.266       .  A
O1148      C1164   1.259       .  A
Tb1149     O1153   2.367       .  S
Tb1149     O1158   2.361       .  S
Tb1149     O1152   2.342       .  S
Tb1149     O1161   2.369       .  S
O1150      C1396   1.262       .  A
O1150     Tb1384   2.356       .  S
O1151     Tb1389   2.339       .  S
O1153      C1163   1.280       .  A
C1154      C1192   1.432       .  S
C1154      O1167   1.264       .  A
C1156      O1165   1.259       .  A
C1157      C1181   1.436       .  S
C1157      O1159   1.262       .  A
O1159     Tb1389   2.372       .  S
O1161      C1162   1.274       .  A
C1162      C1169   1.474       .  S
C1163      C1174   1.478       .  S
C1164      C1190   1.436       .  S
O1166      C1404   1.260       .  A
O1166     Tb1384   2.346       .  S
O1167     Tb1384   2.337       .  S
C1169      C1170   1.342       .  D
C1170      H1172   1.086       .  S
C1173      C1174   1.343       .  D
C1174      H1176   1.087       .  S
C1177      C1178   1.204       .  T
C1179      C1396   1.437       .  S
C1179      C1180   1.207       .  T
C1181      C1182   1.207       .  T
C1183      C1184   1.204       .  T
C1185      C1186   1.205       .  T
C1186      C1370   1.432       .  S
C1187      C1188   1.205       .  T
C1189      C1190   1.207       .  T
C1191      C1192   1.204       .  T
C1193      C1194   1.208       .  T
C1195      C1196   1.208       .  T
C1197      C1198   1.199       .  T
C1199      C1200   1.203       .  T
C1201      C1202   1.400       .  A
C1201      C1206   1.400       .  A
C1201      C1319   1.439       .  S
C1202      C1203   1.401       .  A
C1202      H1207   1.085       .  S
C1203      C1204   1.403       .  A
C1203      C1318   1.437       .  S
C1204      C1205   1.402       .  A
C1204      H1208   1.084       .  S
C1205      C1206   1.401       .  A
C1205      C1436   1.441       .  S
C1206      H1209   1.085       .  S
C1210      C1211   1.401       .  A
C1210      C1215   1.402       .  A
C1210      C1314   1.442       .  S
C1211      C1212   1.402       .  A
C1211      H1216   1.085       .  S
C1212      C1213   1.400       .  A
C1212      C1311   1.436       .  S
C1213      C1214   1.398       .  A
C1213      H1217   1.085       .  S
C1214      C1215   1.402       .  A
C1214      C1309   1.438       .  S
C1215      H1218   1.085       .  S
C1219      C1220   1.403       .  A
C1219      C1224   1.403       .  A
C1219      C1305   1.446       .  S
C1220      C1221   1.404       .  A
C1220      H1225   1.084       .  S
C1221      C1222   1.402       .  A
C1221      C1303   1.440       .  S
C1222      C1223   1.401       .  A
C1222      H1226   1.085       .  S
C1223      C1224   1.403       .  A
C1223      C1307   1.444       .  S
C1224      H1227   1.085       .  S
C1228      C1229   1.400       .  A
C1228      C1233   1.401       .  A
C1228      C1300   1.438       .  S
C1229      C1230   1.401       .  A
C1229      H1234   1.084       .  S
C1230      C1231   1.397       .  A
C1230      C1297   1.432       .  S
C1231      C1232   1.397       .  A
C1231      H1235   1.085       .  S
C1232      C1233   1.401       .  A
C1232      C1302   1.433       .  S
C1233      H1236   1.085       .  S
C1237      C1320   1.434       .  S
C1237      O1252   1.258       .  A
C1237      O1239   1.259       .  A
Tb1238     O1374   2.375   1_554  S
Tb1238     O1249   2.368       .  S
Tb1238     O1242   2.358       .  S
Tb1238     O1259   2.364       .  S
O1239     Tb1243   2.360       .  S
O1240      C1251   1.258       .  A
C1241      C1304   1.434       .  S
C1241      O1246   1.267       .  A
C1241      O1262   1.265       .  A
O1242      C1378   1.258       .  A
Tb1243     O1367   2.308   1_554  S
Tb1243     O1252   2.354       .  S
Tb1243     O1246   2.347       .  S
Tb1243     O1255   2.339       .  S
O1247      C1257   1.269       .  A
O1247     Tb1363   2.311       .  S
C1248      C1317   1.432       .  S
C1248      O1261   1.266       .  A
C1250      O1259   1.258       .  A
C1251      C1308   1.439       .  S
C1251      O1253   1.258       .  A
O1254     Tb1358   2.313       .  S
O1255      C1256   1.270       .  A
C1256      C1293   1.470       .  S
C1257      C1290   1.470       .  S
C1258      C1315   1.434       .  S
C1258      O1362   1.260       .  A
C1263      C1313   1.438       .  S
C1263      O1278   1.259       .  A
C1263      O1265   1.260       .  A
Tb1264     O1280   2.363       .  S
Tb1264     O1275   2.330       .  S
Tb1264     O1268   2.343       .  S
Tb1264     O1285   2.359       .  S
O1265     Tb1269   2.363       .  S
O1266      C1277   1.256       .  A
C1267      C1298   1.425       .  S
C1267      O1272   1.261       .  A
C1267      O1288   1.265       .  A
O1268      C1284   1.261       .  A
Tb1269     O1273   2.329       .  S
Tb1269     O1278   2.357       .  S
Tb1269     O1272   2.324       .  S
Tb1269     O1281   2.360       .  S
O1273      C1283   1.274       .  A
C1274      C1312   1.430       .  S
C1274      O1287   1.264       .  A
C1276      O1285   1.260       .  A
C1277      C1301   1.428       .  S
C1277      O1279   1.259       .  A
O1281      C1282   1.276       .  A
C1282      C1289   1.469       .  S
C1283      C1294   1.468       .  S
C1284      C1310   1.433       .  S
C1289      C1290   1.347       .  D
C1290      H1292   1.087       .  S
C1293      C1294   1.342       .  D
C1294      H1296   1.087       .  S
C1297      C1298   1.201       .  T
C1299      C1300   1.205       .  T
C1301      C1302   1.202       .  T
C1303      C1304   1.206       .  T
C1305      C1306   1.209       .  T
C1307      C1308   1.208       .  T
C1309      C1310   1.205       .  T
C1311      C1312   1.203       .  T
C1313      C1314   1.207       .  T
C1315      C1316   1.205       .  T
C1316      C1325   1.439       .  S
C1317      C1318   1.204       .  T
C1319      C1320   1.205       .  T
C1321      C1322   1.402       .  A
C1321      C1326   1.403       .  A
C1321      C1439   1.442       .  S
C1322      C1323   1.403       .  A
C1322      H1327   1.085       .  S
C1323      C1324   1.399       .  A
C1323      C1438   1.437       .  S
C1324      C1325   1.399       .  A
C1324      H1328   1.085       .  S
C1325      C1326   1.402       .  A
C1326      H1329   1.085       .  S
C1330      C1331   1.399       .  A
C1330      C1335   1.402       .  A
C1330      C1434   1.439       .  S
C1331      C1332   1.400       .  A
C1331      H1336   1.085       .  S
C1332      C1333   1.399       .  A
C1332      C1431   1.432       .  S
C1333      C1334   1.399       .  A
C1333      H1337   1.085       .  S
C1334      C1335   1.402       .  A
C1334      C1429   1.438       .  S
C1335      H1338   1.085       .  S
C1339      C1340   1.401       .  A
C1339      C1344   1.403       .  A
C1339      C1425   1.441       .  S
C1340      C1341   1.401       .  A
C1340      H1345   1.085       .  S
C1341      C1342   1.400       .  A
C1341      C1423   1.437       .  S
C1342      C1343   1.399       .  A
C1342      H1346   1.085       .  S
C1343      C1344   1.403       .  A
C1343      C1427   1.440       .  S
C1344      H1347   1.085       .  S
C1348      C1349   1.398       .  A
C1348      C1353   1.400       .  A
C1348      C1420   1.437       .  S
C1349      C1350   1.400       .  A
C1349      H1354   1.085       .  S
C1350      C1351   1.402       .  A
C1350      C1417   1.436       .  S
C1351      C1352   1.401       .  A
C1351      H1355   1.084       .  S
C1352      C1353   1.401       .  A
C1352      C1422   1.439       .  S
C1353      H1356   1.085       .  S
C1357      C1440   1.436       .  S
C1357      O1372   1.259       .  A
C1357      O1359   1.263       .  A
Tb1358     O1369   2.320       .  S
Tb1358     O1362   2.369       .  S
Tb1358     O1379   2.346       .  S
O1359     Tb1363   2.364       .  S
O1360      C1371   1.263       .  A
C1361      C1424   1.432       .  S
C1361      O1366   1.265       .  A
C1361      O1382   1.264       .  A
Tb1363     O1372   2.342       .  S
Tb1363     O1366   2.343       .  S
Tb1363     O1375   2.342       .  S
O1367      C1377   1.268       .  A
C1368      C1437   1.431       .  S
C1368      O1381   1.261       .  A
C1370      O1379   1.256       .  A
C1371      C1428   1.434       .  S
C1371      O1373   1.259       .  A
O1375      C1376   1.270       .  A
C1376      C1413   1.470       .  S
C1377      C1410   1.471       .  S
C1378      C1435   1.436       .  S
C1383      C1433   1.434       .  S
C1383      O1398   1.256       .  A
C1383      O1385   1.261       .  A
Tb1384     O1400   2.328   1_655  S
Tb1384     O1395   2.352       .  S
Tb1384     O1388   2.357       .  S
Tb1384     O1405   2.355       .  S
O1385     Tb1389   2.367       .  S
O1386      C1397   1.264       .  A
C1387      C1418   1.431       .  S
C1387      O1392   1.267       .  A
C1387      O1408   1.264       .  A
O1388      C1404   1.262       .  A
Tb1389     O1393   2.339       .  S
Tb1389     O1398   2.348       .  S
Tb1389     O1392   2.345       .  S
Tb1389     O1401   2.346       .  S
O1393      C1403   1.274       .  A
C1394      C1432   1.426       .  S
C1394      O1407   1.264       .  A
C1396      O1405   1.262       .  A
C1397      C1421   1.434       .  S
C1397      O1399   1.259       .  A
O1401      C1402   1.274       .  A
C1402      C1409   1.469       .  S
C1403      C1414   1.468       .  S
C1404      C1430   1.433       .  S
C1409      C1410   1.347       .  D
C1410      H1412   1.087       .  S
C1413      C1414   1.341       .  D
C1414      H1416   1.087       .  S
C1417      C1418   1.204       .  T
C1419      C1420   1.204       .  T
C1421      C1422   1.205       .  T
C1423      C1424   1.204       .  T
C1425      C1426   1.206       .  T
C1427      C1428   1.206       .  T
C1429      C1430   1.205       .  T
C1431      C1432   1.201       .  T
C1433      C1434   1.205       .  T
C1435      C1436   1.207       .  T
C1437      C1438   1.204       .  T
C1439      C1440   1.207       .  T
