geometry optimzed in LAMMPS
_audit_creation_date              2020-12-01 
_audit_creation_method            'lammps2cif' 
_symmetry_space_group_name_H-M    'P1' 
_symmetry_Int_Tables_number       1 
_symmetry_cell_setting            triclinic 
loop_ 
_symmetry_equiv_pos_as_xyz 
  x,y,z 
_cell_length_a                    56.29711059 
_cell_length_b                    56.29468422262108 
_cell_length_c                    40.56284977116023 
_cell_angle_alpha                 89.93078038152295 
_cell_angle_beta                  90.19503174854846 
_cell_angle_gamma                 122.45230064356832 
loop_ 
_atom_site_label 
_atom_site_type_symbol 
_atom_site_fract_x 
_atom_site_fract_y 
_atom_site_fract_z 
_atom_site_charge 
C1          C  0.34625913  0.14973573  0.96481514     0.03100
C2          C  0.36201797  0.17932784  0.96285989    -0.13000
C3          C  0.34863859  0.19442937  0.96145429     0.00600
C4          C  0.31908350  0.17955621  0.96158983    -0.11500
C5          C  0.30296496  0.15007082  0.96353113     0.03100
C6          C  0.31672756  0.13550208  0.96633879    -0.11000
H7          H  0.38472269  0.19070192  0.96136145     0.08700
H8          H  0.30859378  0.19085868  0.95833744     0.06200
H9          H  0.30416637  0.11283767  0.96898278     0.06100
C10         C  0.34766413  0.15226636  0.28757656     0.03100
C11         C  0.36129380  0.18167610  0.28561549    -0.13000
C12         C  0.34591601  0.19477683  0.28558532     0.00600
C13         C  0.31632837  0.17789746  0.28574149    -0.11500
C14         C  0.30219146  0.14832997  0.28721900     0.03100
C15         C  0.31809214  0.13579175  0.28794438    -0.11000
H16         H  0.38407782  0.19454867  0.28506453     0.08700
H17         H  0.30435920  0.18782300  0.28705467     0.06200
H18         H  0.30737571  0.11313203  0.29001270     0.06100
C19         C  0.14288898  0.35612698  0.79012575     0.03100
C20         C  0.17238470  0.37057838  0.78910467    -0.13000
C21         C  0.18629171  0.35601378  0.78897095     0.00600
C22         C  0.17018803  0.32636609  0.78828715    -0.11500
C23         C  0.14055400  0.31142891  0.78895289     0.03100
C24         C  0.12718366  0.32656265  0.78945128    -0.11000
H25         H  0.18469016  0.39338218  0.78917819     0.08700
H26         H  0.18069351  0.31494429  0.78955172     0.06200
H27         H  0.10444459  0.31519962  0.79087789     0.06100
C28         C  0.14051848  0.35300633  0.46685760     0.03100
C29         C  0.12593039  0.32370211  0.47157210    -0.13000
C30         C  0.13975733  0.30911476  0.46972888     0.00600
C31         C  0.16914830  0.32451535  0.46563320    -0.11500
C32         C  0.18446839  0.35399326  0.46199324     0.03100
C33         C  0.16991174  0.36800491  0.46254872    -0.11000
H34         H  0.10341070  0.31190997  0.47559797     0.08700
H35         H  0.17989693  0.31340891  0.46319092     0.06200
H36         H  0.18142749  0.39052156  0.45854669     0.06100
C37         C  0.09712777  0.05466779  0.91694144     0.42500
N38         N  0.06163035  0.04024396  0.88480574     0.01300
C39         C  0.43071540  0.01679729  0.92078555    -0.06500
H40         H  0.45482098  0.45552990  0.98858913     0.06800
C41         C  0.45840625  0.41062603  0.87753767    -0.06900
Co42       Co  0.01496686  0.04228754  0.91647142     0.74200
N43         N  0.47834714  0.48852121  0.95310784    -0.26100
Co44       Co  0.45250482  0.47693606  0.91129244     0.74100
C45         C  0.44632762  0.39938883  0.90991183     0.42600
N46         N  0.01304784  0.46761795  0.83507933     0.01000
N47         N  0.45327445  0.44058676  0.90474531     0.01100
N48         N  0.47180572  0.05903753  0.92506819    -0.46900
H49         H  0.07483786  0.06226093  0.95945898     0.06800
N50         N  0.00219624  0.01330422  0.95502498     0.01400
N51         N  0.42759631  0.46624855  0.86885642     0.01100
C52         C  0.39240153  0.45250790  0.83621138     0.42700
N53         N  0.03681550  0.49238912  0.83771105    -0.25500
C54         C  0.03002993  0.09544639  0.87556733    -0.06400
N55         N  0.08748869  0.04543752  0.88615785    -0.46600
N56         N  0.40181418  0.46129353  0.86723567    -0.46800
C57         C  0.04178523  0.10652613  0.84294651     0.42500
N58         N  0.47611407  0.03847998  0.91930778     0.01300
N59         N  0.01130461  0.01761521  0.80070492    -0.25500
N60         N  0.05363391  0.04566472  0.91283832    -0.26000
N61         N  0.48739322  0.49294481  0.79860669     0.01000
H62         H  0.03571720  0.05033734  0.76532508     0.06900
H63         H  0.41503734  0.44533419  0.79372664     0.06900
N64         N  0.45245812  0.01359998  0.91701128    -0.26100
N65         N  0.46175245  0.43601075  0.87651432    -0.25700
N66         N  0.03566460  0.06561852  0.84877541     0.01300
C67         C  0.49729930  0.49531908  0.00329107     0.42700
C68         C  0.05842008  0.48870230  0.83584252    -0.06900
N69         N  0.43574712  0.46107504  0.84074392    -0.25700
H70         H  0.46231674  0.40068108  0.85731452     0.06900
N71         N  0.01397974  0.01829229  0.98461156    -0.46900
H72         H  0.08049816  0.50519832  0.83668513     0.06900
C73         C  0.49335351  0.01071148  0.75006436     0.42600
C74         C  0.07478884  0.05508969  0.93472089    -0.06400
Co75       Co  0.03676012  0.02926473  0.84262764     0.73800
N76         N  0.01713696  0.44674115  0.83084468    -0.46600
C77         C  0.44362947  0.04692482  0.92611889     0.42800
N78         N  0.04498144  0.08697402  0.82788681    -0.46600
Co79       Co  0.47428188  0.46408334  0.83726722     0.73900
C80         C  0.41484712  0.45215011  0.81858501    -0.06900
C81         C  0.47354808  0.47549805  0.98232925    -0.06500
N82         N  0.02715171  0.07025530  0.87696613    -0.26000
N83         N  0.44339786  0.41896458  0.92528410    -0.46800
H84         H  0.40875318  0.99996339  0.92104483     0.06900
C85         C  0.01673817  0.03051463  0.77137755    -0.06900
Cl86       Cl  0.49461373  0.00315398  0.87690898    -0.49900
C87         C  0.04525373  0.45843574  0.83129489     0.42600
H88         H  0.02586003  0.10531014  0.89564650     0.06800
N89         N  0.47616005  0.48786157  0.76869413    -0.46600
C90         C  0.50179340  0.50300197  0.24993183     0.42500
N91         N  0.48406212  0.49734911  0.29835281     0.01300
C92         C  0.04646765  0.08167326  0.43646875    -0.06500
H93         H  0.09649499  0.03276764  0.39353265     0.06800
C94         C  0.00761171  0.43792966  0.41775563    -0.06900
Co95       Co  0.02116225  0.04624808  0.34284042     0.74200
N96         N  0.06181247  0.03524977  0.37580561    -0.26100
Co97       Co  0.03416447  0.02262865  0.41548945     0.74100
C98         C  0.03783376  0.45046783  0.42266878     0.42600
N99         N  0.45608257  0.43632981  0.36759296     0.01000
N100        N  0.02969541  0.48337678  0.41690205     0.01100
N101        N  0.03689106  0.09590378  0.38884703    -0.46900
H102        H  0.04181835  0.04508536  0.26514470     0.06800
N103        N  0.05726901  0.04455226  0.34811289     0.01400
N104        N  0.00585830  0.00966276  0.45444704     0.01100
C105        C  0.48889555  0.00419029  0.50323206     0.42700
N106        N  0.45081944  0.44489664  0.33977184    -0.25500
C107        C  0.48144739  0.06891693  0.33635111    -0.06400
N108        N  0.47889104  0.48600955  0.26852833    -0.46600
N109        N  0.01163933  0.02088419  0.48434141    -0.46800
C110        C  0.45126547  0.05619583  0.33146886     0.42500
N111        N  0.03249488  0.07039521  0.38590443     0.01300
N112        N  0.42756283  0.47185806  0.37648745    -0.25500
N113        N  0.00889350  0.02113451  0.30046515    -0.26000
N114        N  0.43192832  0.46281504  0.40452261     0.01000
H115        H  0.39248287  0.47270975  0.35697445     0.06900
H116        H  0.44826799  0.46248429  0.48832729     0.06900
N117        N  0.03785268  0.06154370  0.41341032    -0.26100
N118        N  0.00459355  0.45992690  0.41468720    -0.25700
N119        N  0.45974082  0.02347569  0.33556238     0.01300
C120        C  0.09778576  0.04995137  0.34147654     0.42700
C121        C  0.43990664  0.42353592  0.31796685    -0.06900
N122        N  0.48076087  0.48621306  0.45248551    -0.25700
H123        H  0.49064344  0.41601849  0.41797210     0.06900
N124        N  0.07846731  0.05393859  0.32704338    -0.46900
H125        H  0.43221097  0.42378907  0.29358672     0.06900
C126        C  0.39049915  0.45576056  0.40930628     0.42600
C127        C  0.02174890  0.02638993  0.27115665    -0.06400
Co128      Co  0.45531829  0.48426060  0.33707289     0.73800
N129        N  0.44936491  0.40993854  0.36611651    -0.46600
C130        C  0.04555993  0.10435118  0.42016209     0.42800
N131        N  0.43919899  0.02802582  0.33100495    -0.46600
Co132      Co  0.46806336  0.46095135  0.41019893     0.73900
C133        C  0.46832108  0.48109167  0.48205712    -0.06900
C134        C  0.08675628  0.03764902  0.37389141    -0.06500
N135        N  0.48467823  0.04700965  0.33838330    -0.26000
N136        N  0.05009111  0.47867792  0.42203607    -0.46800
H137        H  0.05294977  0.08068062  0.46129508     0.06900
C138        C  0.40221071  0.46857724  0.37733028    -0.06900
Cl139      Cl  0.49467381  0.00347836  0.37638101    -0.49900
C140        C  0.43914527  0.40038563  0.33555090     0.42600
H141        H  0.49821466  0.09090201  0.33699381     0.06800
N142        N  0.41000500  0.45250298  0.42467581    -0.46600
C143        C  0.44373846  0.46503714  0.61106268    -0.17800
C144        C  0.44437505  0.46600083  0.64553289    -0.20000
C145        C  0.46746032  0.48830203  0.66224028     0.20700
C146        C  0.49012308  0.00989622  0.64401846    -0.02900
C147        C  0.48953501  0.00885968  0.60919091    -0.06000
C148        C  0.46620706  0.48631669  0.59267370     0.20900
C149        C  0.01234686  0.03024047  0.59094255     0.19100
C150        C  0.03546893  0.05252275  0.60766982    -0.17500
C151        C  0.03600033  0.05361024  0.64216879    -0.19700
C152        C  0.01346493  0.03238600  0.66057360     0.20600
C153        C  0.01404247  0.03304978  0.69520622    -0.32700
C154        C  0.49173815  0.01132378  0.71357407     0.01300
C155        C  0.46841646  0.48916955  0.69682906    -0.24000
C156        C  0.46583224  0.48526118  0.55809234    -0.28600
C157        C  0.48859178  0.00629955  0.53967585     0.06900
C158        C  0.01172851  0.02882060  0.55633754    -0.27300
H159        H  0.42569790  0.44754540  0.59877377     0.11700
H160        H  0.42682333  0.44922522  0.65914214     0.12800
H161        H  0.05319239  0.06909444  0.59406388     0.11900
H162        H  0.05412975  0.07099441  0.65446824     0.11100
H163        H  0.03216296  0.05021547  0.70772064     0.16500
H164        H  0.45113222  0.47234264  0.71072882     0.12400
H165        H  0.44792494  0.46779383  0.54564737     0.15300
H166        H  0.02940785  0.04512532  0.54239321     0.15000
C167        C  0.04579384  0.04368397  0.14190113    -0.17800
C168        C  0.04522134  0.04245222  0.10742790    -0.20000
C169        C  0.02336714  0.01885860  0.09088797     0.20700
C170        C  0.50204508  0.49612808  0.10928686    -0.02900
C171        C  0.50259059  0.49739753  0.14411726    -0.06000
C172        C  0.02451583  0.52134891  0.16047037     0.20900
C173        C  0.48098663  0.47490228  0.16252174     0.19100
C174        C  0.45928539  0.45118890  0.14598048    -0.17500
C175        C  0.45878294  0.44990164  0.11149398    -0.19700
C176        C  0.47993179  0.47233777  0.09290018     0.20600
C177        C  0.47900866  0.47166640  0.05825184    -0.32700
C178        C  0.49976030  0.49460929  0.03971249     0.01300
C179        C  0.02214699  0.01789114  0.05629666    -0.24000
C180        C  0.02457153  0.52275131  0.19504794    -0.28600
C181        C  0.50282975  0.50064262  0.21358349     0.06900
C182        C  0.48124081  0.47668202  0.19708384    -0.27300
H183        H  0.06277569  0.06224124  0.15404225     0.11700
H184        H  0.06175754  0.06009596  0.09368079     0.12800
H185        H  0.44255046  0.43370581  0.15972016     0.11900
H186        H  0.44165592  0.43146106  0.09934531     0.11100
H187        H  0.46174064  0.45354531  0.04585164     0.16500
H188        H  0.03830519  0.03563677  0.04229082     0.12400
H189        H  0.04127939  0.04135566  0.20736453     0.15300
H190        H  0.46441519  0.45952334  0.21112839     0.15000
C191        C  0.12698206  0.21621663  0.49321607    -0.17800
C192        C  0.11344415  0.18736089  0.48654360    -0.20000
C193        C  0.09047089  0.17414885  0.46469377     0.20700
C194        C  0.08046892  0.19000957  0.45027846    -0.02900
C195        C  0.09391033  0.21904767  0.45734644    -0.06000
C196        C  0.11765917  0.23235684  0.47837073     0.20900
C197        C  0.08416455  0.23492448  0.44243841     0.19100
C198        C  0.06070666  0.22159665  0.42133375    -0.17500
C199        C  0.04762400  0.19295107  0.41402727    -0.19700
C200        C  0.05764882  0.17709842  0.42789764     0.20600
C201        C  0.04586130  0.14883581  0.41894647    -0.32700
C202        C  0.05621822  0.13312274  0.43248994     0.01300
C203        C  0.07796813  0.14565215  0.45609440    -0.24000
C204        C  0.13212136  0.26165234  0.48334924    -0.28600
C205        C  0.12301147  0.27776848  0.46771334     0.06900
C206        C  0.09861536  0.26402699  0.44788503    -0.27300
H207        H  0.14505637  0.22600659  0.50957516     0.11700
H208        H  0.12136256  0.17550337  0.49790541     0.12800
H209        H  0.05287616  0.23348721  0.40984212     0.11900
H210        H  0.02997340  0.18330984  0.39703875     0.11100
H211        H  0.02891770  0.13915562  0.40098064     0.16500
H212        H  0.08610935  0.13366465  0.46652598     0.12400
H213        H  0.15070530  0.27198579  0.49891655     0.15300
H214        H  0.09160153  0.27621045  0.43530355     0.15000
C215        C  0.30878296  0.38723762  0.47699876    -0.17800
C216        C  0.27989852  0.37256782  0.48378288    -0.20000
C217        C  0.26211270  0.37845995  0.46619782     0.20700
C218        C  0.27360623  0.39942574  0.44157277    -0.02900
C219        C  0.30275918  0.41417633  0.43465069    -0.06000
C220        C  0.32044087  0.40803718  0.45243548     0.20900
C221        C  0.31414030  0.43487947  0.40974752     0.19100
C222        C  0.29639481  0.44081539  0.39216231    -0.17500
C223        C  0.26757500  0.42628114  0.39907371    -0.19700
C224        C  0.25596774  0.40554877  0.42370267     0.20600
C225        C  0.22703373  0.39077773  0.43063883    -0.32700
C226        C  0.21531838  0.36983324  0.45519934     0.01300
C227        C  0.23307496  0.36376152  0.47277669    -0.24000
C228        C  0.34932652  0.42242920  0.44494684    -0.28600
C229        C  0.36069336  0.44261628  0.41958457     0.06900
C230        C  0.34296258  0.44897518  0.40247632    -0.27300
H231        H  0.32199180  0.38218411  0.49086117     0.11700
H232        H  0.27145184  0.35654447  0.50277681     0.12800
H233        H  0.30479002  0.45662713  0.37292107     0.11900
H234        H  0.25433739  0.43121841  0.38507558     0.11100
H235        H  0.21352534  0.39526613  0.41648224     0.16500
H236        H  0.22430922  0.34777815  0.49183334     0.12400
H237        H  0.36277500  0.41733506  0.45821276     0.15300
H238        H  0.35146778  0.46468915  0.38314441     0.15000
C239        C  0.11882253  0.45059214  0.47095513    -0.17800
C240        C  0.13287765  0.43681781  0.47794895    -0.20000
C241        C  0.12142734  0.40881436  0.46799546     0.20700
C242        C  0.09528593  0.39445191  0.45133366    -0.02900
C243        C  0.08096078  0.40824992  0.44456260    -0.06000
C244        C  0.09294196  0.43655505  0.45410867     0.20900
C245        C  0.05479467  0.39378860  0.42793076     0.19100
C246        C  0.04323622  0.36575816  0.41817414    -0.17500
C247        C  0.05756997  0.35223112  0.42452350    -0.19700
C248        C  0.08360897  0.36641677  0.44097361     0.20600
C249        C  0.09834569  0.35314468  0.44663212    -0.32700
C250        C  0.12458027  0.36721856  0.46300621     0.01300
C251        C  0.13580487  0.39506298  0.47395006    -0.24000
C252        C  0.07887416  0.45030618  0.44652656    -0.28600
C253        C  0.05269978  0.43594046  0.43014478     0.06900
C254        C  0.04072918  0.40763581  0.42113119    -0.27300
H255        H  0.12826231  0.47228606  0.47862623     0.11700
H256        H  0.15287885  0.44818831  0.49083008     0.12800
H257        H  0.02319553  0.35435184  0.40537225     0.11900
H258        H  0.04831403  0.33066074  0.41644434     0.11100
H259        H  0.08964537  0.33201932  0.43725178     0.16500
H260        H  0.15578556  0.40610912  0.48689955     0.12400
H261        H  0.08813067  0.47209458  0.45372900     0.15300
H262        H  0.02068101  0.39650296  0.40830988     0.15000
C263        C  0.05238132  0.19890929  0.85547384    -0.17800
C264        C  0.06632185  0.22757173  0.84799232    -0.20000
C265        C  0.08704576  0.23925328  0.82344191     0.20700
C266        C  0.09328637  0.22178163  0.80559424    -0.02900
C267        C  0.07906180  0.19274578  0.81303335    -0.06000
C268        C  0.05886661  0.18141719  0.83846368     0.20900
C269        C  0.08558212  0.17524241  0.79568440     0.19100
C270        C  0.10581427  0.18686757  0.77051806    -0.17500
C271        C  0.12005725  0.21569903  0.76329535    -0.19700
C272        C  0.11425077  0.23343956  0.78099763     0.20600
C273        C  0.12937980  0.26265842  0.77508951    -0.32700
C274        C  0.12359714  0.28027844  0.79330665     0.01300
C275        C  0.10210326  0.26822853  0.81710489    -0.24000
C276        C  0.04607553  0.15299957  0.84714006    -0.28600
C277        C  0.05317203  0.13560052  0.83087336     0.06900
C278        C  0.07239840  0.14668580  0.80452499    -0.27300
H279        H  0.03683180  0.19050642  0.87495987     0.11700
H280        H  0.06122488  0.24071240  0.86182210     0.12800
H281        H  0.11101749  0.17375249  0.75681926     0.11900
H282        H  0.13592163  0.22419525  0.74416673     0.11100
H283        H  0.14574935  0.27172904  0.75653836     0.16500
H284        H  0.09775658  0.28160377  0.83165878     0.12400
H285        H  0.03096261  0.14461131  0.86707638     0.15300
H286        H  0.07791230  0.13340276  0.79175729     0.15000
C287        C  0.30919905  0.38661446  0.76834861    -0.17800
C288        C  0.28020415  0.37261781  0.76223928    -0.20000
C289        C  0.26340518  0.37950939  0.78015035     0.20700
C290        C  0.27612024  0.40114791  0.80400761    -0.02900
C291        C  0.30532474  0.41510003  0.81037625    -0.06000
C292        C  0.32192100  0.40766101  0.79261692     0.20900
C293        C  0.31776142  0.43601428  0.83507224     0.19100
C294        C  0.30116124  0.44346101  0.85239055    -0.17500
C295        C  0.27232577  0.42984320  0.84587736    -0.19700
C296        C  0.25957388  0.40844904  0.82205360     0.20600
C297        C  0.23047826  0.39389214  0.81646813    -0.32700
C298        C  0.21744007  0.37190893  0.79319685     0.01300
C299        C  0.23411250  0.36491986  0.77500319    -0.24000
C300        C  0.35073924  0.42085082  0.80008198    -0.28600
C301        C  0.36296110  0.44088687  0.82559634     0.06900
C302        C  0.34640840  0.44861796  0.84261754    -0.27300
H303        H  0.32160820  0.38065619  0.75442912     0.11700
H304        H  0.27086596  0.35618351  0.74371612     0.12800
H305        H  0.31041972  0.45959015  0.87128083     0.11900
H306        H  0.25990606  0.43576638  0.85984004     0.11100
H307        H  0.21780367  0.39916186  0.83100825     0.16500
H308        H  0.22427782  0.34816973  0.75687549     0.12400
H309        H  0.36332035  0.41466694  0.78695738     0.15300
H310        H  0.35577236  0.46418978  0.86213760     0.15000
C311        C  0.06260497  0.36785706  0.77101348    -0.17800
C312        C  0.04856507  0.38163981  0.77764216    -0.20000
C313        C  0.06049802  0.40490221  0.79898399     0.20700
C314        C  0.08682397  0.41435031  0.81385908    -0.02900
C315        C  0.10080603  0.40020666  0.80750114    -0.06000
C316        C  0.08868875  0.37691598  0.78587223     0.20900
C317        C  0.12686361  0.40935385  0.82284363     0.19100
C318        C  0.13876656  0.43255773  0.84428032    -0.17500
C319        C  0.12513559  0.44683860  0.85018921    -0.19700
C320        C  0.09922548  0.43797403  0.83502389     0.20600
C321        C  0.08555784  0.45236946  0.84051728    -0.32700
C322        C  0.05932008  0.44298380  0.82584920     0.01300
C323        C  0.04670711  0.41902915  0.80550838    -0.24000
C324        C  0.10277091  0.36300676  0.77964005    -0.28600
C325        C  0.12867186  0.37181665  0.79509900     0.06900
C326        C  0.14049035  0.39504099  0.81671391    -0.27300
H327        H  0.05298600  0.35001051  0.75436764     0.11700
H328        H  0.02841335  0.37417703  0.76593947     0.12800
H329        H  0.15872413  0.43977032  0.85634555     0.11900
H330        H  0.13486396  0.46482691  0.86664574     0.11100
H331        H  0.09516438  0.47068607  0.85649430     0.16500
H332        H  0.02650059  0.41185180  0.79407818     0.12400
H333        H  0.09355648  0.34531331  0.76276502     0.15300
H334        H  0.16007233  0.40166903  0.82940358     0.15000
C335        C  0.37463033  0.05909074  0.27647914    -0.17800
C336        C  0.36066624  0.07289884  0.26947647    -0.20000
C337        C  0.36979146  0.09918947  0.28366159     0.20700
C338        C  0.39340688  0.11182880  0.30487334    -0.02900
C339        C  0.40772040  0.09805257  0.31163082    -0.06000
C340        C  0.39812144  0.07145729  0.29754195     0.20900
C341        C  0.43155940  0.11084481  0.33253341     0.19100
C342        C  0.44056637  0.13704641  0.34689639    -0.17500
C343        C  0.42613567  0.15050614  0.34056471    -0.19700
C344        C  0.40261106  0.13812346  0.31951421     0.20600
C345        C  0.38792278  0.15139875  0.31321570    -0.32700
C346        C  0.36420386  0.13888626  0.29224033     0.01300
C347        C  0.35551159  0.11287789  0.27729367    -0.24000
C348        C  0.41221834  0.05773453  0.30469205    -0.28600
C349        C  0.43624975  0.07059139  0.32496563     0.06900
C350        C  0.44591529  0.09718540  0.33869980    -0.27300
H351        H  0.36706713  0.03873143  0.26537563     0.11700
H352        H  0.34257331  0.06289904  0.25314665     0.12800
H353        H  0.45872624  0.14709360  0.36312752     0.11900
H354        H  0.43341912  0.17065327  0.35209498     0.11100
H355        H  0.39454041  0.17114405  0.32540990     0.16500
H356        H  0.33749450  0.10318291  0.26083157     0.12400
H357        H  0.40484061  0.03727849  0.29393448     0.15300
H358        H  0.46431940  0.10701110  0.35458005     0.15000
C359        C  0.35808925  0.28768160  0.26203920    -0.17800
C360        C  0.37128876  0.31652446  0.26888374    -0.20000
C361        C  0.39266356  0.32945014  0.29284423     0.20700
C362        C  0.40090450  0.31308881  0.30984456    -0.02900
C363        C  0.38781249  0.28409542  0.30269360    -0.06000
C364        C  0.36610661  0.27121617  0.27888640     0.20900
C365        C  0.39621249  0.26793885  0.31978292     0.19100
C366        C  0.41752702  0.28073440  0.34370542    -0.17500
C367        C  0.43024844  0.30929353  0.35101287    -0.19700
C368        C  0.42202329  0.32559493  0.33433973     0.20600
C369        C  0.43441400  0.35412152  0.34205181    -0.32700
C370        C  0.42644461  0.37066386  0.32534201     0.01300
C371        C  0.40571774  0.35828534  0.30046558    -0.24000
C372        C  0.35263831  0.24209883  0.27276644    -0.28600
C373        C  0.36087574  0.22586035  0.28997323     0.06900
C374        C  0.38284963  0.23913289  0.31321005    -0.27300
H375        H  0.34150827  0.27822605  0.24365276     0.11700
H376        H  0.36460863  0.32868145  0.25560655     0.12800
H377        H  0.42418250  0.26857094  0.35702634     0.11900
H378        H  0.44647675  0.31862234  0.36982805     0.11100
H379        H  0.45037545  0.36352055  0.36119353     0.16500
H380        H  0.39922803  0.37082961  0.28772373     0.12400
H381        H  0.33577537  0.23207135  0.25475388     0.15300
H382        H  0.38897787  0.22678589  0.32711895     0.15000
C383        C  0.18936109  0.05824529  0.35200223    -0.17800
C384        C  0.21803134  0.07212784  0.34454718    -0.20000
C385        C  0.22989754  0.09344056  0.32060832     0.20700
C386        C  0.21253044  0.10018652  0.30322109    -0.02900
C387        C  0.18354295  0.08612501  0.31071991    -0.06000
C388        C  0.17206588  0.06543927  0.33565099     0.20900
C389        C  0.16626509  0.09338137  0.29401116     0.19100
C390        C  0.17798354  0.11401048  0.26925018    -0.17500
C391        C  0.20672045  0.12798843  0.26187497    -0.19700
C392        C  0.22426731  0.12158353  0.27910203     0.20600
C393        C  0.25341534  0.13668811  0.27327478    -0.32700
C394        C  0.27103965  0.13073738  0.29129818     0.01300
C395        C  0.25894528  0.10868475  0.31451214    -0.24000
C396        C  0.14373950  0.05294930  0.34455717    -0.28600
C397        C  0.12664201  0.06090101  0.32904602     0.06900
C398        C  0.13785167  0.08056364  0.30311650    -0.27300
H399        H  0.18082811  0.04226433  0.37105144     0.11700
H400        H  0.23103996  0.06656300  0.35797314     0.12800
H401        H  0.16502902  0.11974992  0.25602650     0.11900
H402        H  0.21532735  0.14420578  0.24310580     0.11100
H403        H  0.26247025  0.15335273  0.25503363     0.16500
H404        H  0.27228900  0.10410049  0.32886751     0.12400
H405        H  0.13522220  0.03746442  0.36414310     0.15300
H406        H  0.12479887  0.08671322  0.29091433     0.15000
C407        C  0.44364801  0.12812270  0.97247124    -0.17800
C408        C  0.42972528  0.14206807  0.97890450    -0.20000
C409        C  0.40175319  0.13041932  0.96860033     0.20700
C410        C  0.38757130  0.10425502  0.95211996    -0.02900
C411        C  0.40143194  0.08996444  0.94612542    -0.06000
C412        C  0.42972113  0.10211983  0.95599885     0.20900
C413        C  0.38705741  0.06366677  0.92989276     0.19100
C414        C  0.35909431  0.05194612  0.91970314    -0.17500
C415        C  0.34556763  0.06635597  0.92508348    -0.19700
C416        C  0.35966381  0.09252858  0.94113931     0.20600
C417        C  0.34644235  0.10737195  0.94572928    -0.32700
C418        C  0.36026632  0.13355731  0.96212130     0.01300
C419        C  0.38786957  0.14465236  0.97401183    -0.24000
C420        C  0.44355442  0.08809033  0.94907441    -0.28600
C421        C  0.42922452  0.06181844  0.93308488     0.06900
C422        C  0.40095317  0.04965446  0.92381575    -0.27300
H423        H  0.46533399  0.13770627  0.98032904     0.11700
H424        H  0.44096463  0.16215348  0.99156473     0.12800
H425        H  0.34778478  0.03177488  0.90722135     0.11900
H426        H  0.32407560  0.05705119  0.91659755     0.11100
H427        H  0.32559818  0.09874329  0.93544949     0.16500
H428        H  0.39873441  0.16447699  0.98720732     0.12400
H429        H  0.46533616  0.09743377  0.95644570     0.15300
H430        H  0.38988392  0.02951734  0.91124175     0.15000
C431        C  0.42565798  0.27995814  0.90728467    -0.17800
C432        C  0.43935726  0.30866893  0.90017238    -0.20000
C433        C  0.43068232  0.32523688  0.91511467     0.20700
C434        C  0.40840968  0.31294523  0.93803433    -0.02900
C435        C  0.39453078  0.28392666  0.94515801    -0.06000
C436        C  0.40305050  0.26734551  0.92944174     0.20900
C437        C  0.37177089  0.27141607  0.96741042     0.19100
C438        C  0.36347743  0.28813833  0.98284787    -0.17500
C439        C  0.37728737  0.31693425  0.97585151    -0.19700
C440        C  0.39961845  0.32950145  0.95327638     0.20600
C441        C  0.41286805  0.35813050  0.94504180    -0.32700
C442        C  0.43440626  0.37019082  0.92133795     0.01300
C443        C  0.44347860  0.35372137  0.90692587    -0.24000
C444        C  0.38842079  0.23833092  0.93551196    -0.28600
C445        C  0.36530930  0.22552395  0.95712205     0.06900
C446        C  0.35738567  0.24233894  0.97333329    -0.27300
H447        H  0.43251319  0.26753197  0.89510791     0.11700
H448        H  0.45650865  0.31784481  0.88262615     0.12800
H449        H  0.34607674  0.27887543  0.00005084     0.11900
H450        H  0.37025969  0.32930684  0.98778846     0.11100
H451        H  0.40574796  0.37073679  0.95616637     0.16500
H452        H  0.46030249  0.36297843  0.88894814     0.12400
H453        H  0.39444655  0.22557895  0.92245412     0.15300
H454        H  0.33983355  0.23272186  0.99034224     0.15000
C455        C  0.18708913  0.06047091  0.90420366    -0.17800
C456        C  0.21586860  0.07372098  0.91088983    -0.20000
C457        C  0.22927520  0.09677015  0.93251568     0.20700
C458        C  0.21347806  0.10632065  0.94796377    -0.02900
C459        C  0.18436300  0.09276624  0.94147023    -0.06000
C460        C  0.17121339  0.06994660  0.91918982     0.20900
C461        C  0.16852816  0.10233382  0.95684868     0.19100
C462        C  0.18196306  0.12536139  0.97850886    -0.17500
C463        C  0.21087502  0.13895818  0.98470289    -0.19700
C464        C  0.22683210  0.12967419  0.96948453     0.20600
C465        C  0.25594383  0.14355234  0.97505384    -0.32700
C466        C  0.27188585  0.13433290  0.95947388     0.01300
C467        C  0.25828880  0.11074402  0.93846486    -0.24000
C468        C  0.14253583  0.05731467  0.91186891    -0.28600
C469        C  0.12669198  0.06682741  0.92695314     0.06900
C470        C  0.13967874  0.08904872  0.94980349    -0.27300
H471        H  0.17727886  0.04291701  0.88713439     0.11700
H472        H  0.22771221  0.06612487  0.89886022     0.12800
H473        H  0.17015076  0.13303762  0.99043112     0.11900
H474        H  0.22079121  0.15685127  0.00127955     0.10700
H475        H  0.26623877  0.16158421  0.99142949     0.16500
H476        H  0.27046977  0.10378620  0.92587726     0.12400
H477        H  0.13252439  0.04015031  0.89425300     0.15300
H478        H  0.12760863  0.09667946  0.96116438     0.15000
C479        C  0.34625914  0.64973576  0.96481511     0.03100
C480        C  0.36201798  0.67932787  0.96285987    -0.13000
C481        C  0.34863859  0.69442939  0.96145429     0.00600
C482        C  0.31908350  0.67955622  0.96158982    -0.11500
C483        C  0.30296497  0.65007083  0.96353110     0.03100
C484        C  0.31672757  0.63550210  0.96633875    -0.11000
H485        H  0.38472271  0.69070195  0.96136144     0.08700
H486        H  0.30859379  0.69085867  0.95833744     0.06200
H487        H  0.30416639  0.61283770  0.96898273     0.06100
C488        C  0.34766414  0.65226637  0.28757656     0.03100
C489        C  0.36129384  0.68167611  0.28561549    -0.13000
C490        C  0.34591605  0.69477684  0.28558533     0.00600
C491        C  0.31632841  0.67789748  0.28574149    -0.11500
C492        C  0.30219148  0.64833000  0.28721899     0.03100
C493        C  0.31809215  0.63579176  0.28794437    -0.11000
H494        H  0.38407789  0.69454868  0.28506452     0.08700
H495        H  0.30435926  0.68782301  0.28705467     0.06200
H496        H  0.30737571  0.61313205  0.29001269     0.06100
C497        C  0.14288900  0.85612698  0.79012573     0.03100
C498        C  0.17238471  0.87057837  0.78910463    -0.13000
C499        C  0.18629172  0.85601376  0.78897094     0.00600
C500        C  0.17018805  0.82636607  0.78828715    -0.11500
C501        C  0.14055402  0.81142890  0.78895288     0.03100
C502        C  0.12718368  0.82656264  0.78945127    -0.11000
H503        H  0.18469018  0.89338216  0.78917812     0.08700
H504        H  0.18069354  0.81494426  0.78955174     0.06200
H505        H  0.10444458  0.81519960  0.79087789     0.06100
C506        C  0.14051848  0.85300633  0.46685765     0.03100
C507        C  0.12593040  0.82370211  0.47157214    -0.13000
C508        C  0.13975735  0.80911477  0.46972888     0.00600
C509        C  0.16914833  0.82451536  0.46563318    -0.11500
C510        C  0.18446841  0.85399327  0.46199323     0.03100
C511        C  0.16991175  0.86800492  0.46254876    -0.11000
H512        H  0.10341069  0.81190996  0.47559802     0.08700
H513        H  0.17989696  0.81340893  0.46319088     0.06200
H514        H  0.18142750  0.89052158  0.45854675     0.06100
C515        C  0.09712775  0.55466779  0.91694140     0.42500
N516        N  0.06163033  0.54024396  0.88480571     0.01300
C517        C  0.43071541  0.51679728  0.92078556    -0.06500
H518        H  0.45482096  0.95552992  0.98858909     0.06800
C519        C  0.45840628  0.91062607  0.87753764    -0.06900
Co520      Co  0.01496685  0.54228754  0.91647141     0.74200
N521        N  0.47834713  0.98852124  0.95310782    -0.26100
Co522      Co  0.45250482  0.97693608  0.91129240     0.74100
C523        C  0.44632762  0.89938886  0.90991180     0.42600
N524        N  0.01304785  0.96761794  0.83507936     0.01000
N525        N  0.45327449  0.94058680  0.90474528     0.01100
N526        N  0.47180573  0.55903752  0.92506820    -0.46900
H527        H  0.07483786  0.56226093  0.95945895     0.06800
N528        N  0.00219624  0.51330422  0.95502496     0.01400
N529        N  0.42759632  0.96624857  0.86885635     0.01100
C530        C  0.39240153  0.95250791  0.83621129     0.42700
N531        N  0.03681551  0.99238912  0.83771109    -0.25500
C532        C  0.03002992  0.59544640  0.87556730    -0.06400
N533        N  0.08748867  0.54543753  0.88615782    -0.46600
N534        N  0.40181419  0.96129356  0.86723558    -0.46800
C535        C  0.04178520  0.60652612  0.84294647     0.42500
N536        N  0.47611408  0.53847996  0.91930781     0.01300
N537        N  0.01130459  0.51761522  0.80070488    -0.25500
N538        N  0.05363390  0.54566473  0.91283829    -0.26000
N539        N  0.48739323  0.99294486  0.79860666     0.01000
H540        H  0.03571718  0.55033733  0.76532505     0.06900
H541        H  0.41503734  0.94533415  0.79372654     0.06900
N542        N  0.45245813  0.51359996  0.91701131    -0.26100
N543        N  0.46175249  0.93601080  0.87651429    -0.25700
N544        N  0.03566456  0.56561851  0.84877539     0.01300
C545        C  0.49729928  0.99531909  0.00329105     0.42700
C546        C  0.05842009  0.98870230  0.83584254    -0.06900
N547        N  0.43574712  0.96107505  0.84074385    -0.25700
H548        H  0.46231677  0.90068112  0.85731449     0.06900
N549        N  0.01397977  0.51829229  0.98461153    -0.46900
H550        H  0.08049818  0.00519833  0.83668515     0.06900
C551        C  0.49335353  0.51071143  0.75006439     0.42600
C552        C  0.07478883  0.55508969  0.93472086    -0.06400
Co553      Co  0.03676010  0.52926473  0.84262760     0.73800
N554        N  0.01713697  0.94674115  0.83084467    -0.46600
C555        C  0.44362948  0.54692481  0.92611889     0.42800
N556        N  0.04498139  0.58697401  0.82788678    -0.46600
Co557      Co  0.47428191  0.96408338  0.83726719     0.73900
C558        C  0.41484712  0.95215010  0.81858494    -0.06900
C559        C  0.47354806  0.97549808  0.98232923    -0.06500
N560        N  0.02715169  0.57025530  0.87696612    -0.26000
N561        N  0.44339789  0.91896462  0.92528408    -0.46800
H562        H  0.40875319  0.49996338  0.92104482     0.06900
C563        C  0.01673816  0.53051463  0.77137751    -0.06900
Cl564      Cl  0.49461372  0.50315393  0.87690901    -0.49900
C565        C  0.04525374  0.95843574  0.83129488     0.42600
H566        H  0.02586004  0.60531017  0.89564649     0.06800
N567        N  0.47616005  0.98786161  0.76869410    -0.46600
C568        C  0.50179341  0.00300194  0.24993179     0.42500
N569        N  0.48406213  0.99734911  0.29835278     0.01300
C570        C  0.04646768  0.58167327  0.43646873    -0.06500
H571        H  0.09649502  0.53276764  0.39353265     0.06800
C572        C  0.00761171  0.93792965  0.41775562    -0.06900
Co573      Co  0.02116227  0.54624808  0.34284040     0.74200
N574        N  0.06181249  0.53524977  0.37580561    -0.26100
Co575      Co  0.03416448  0.52262866  0.41548944     0.74100
C576        C  0.03783376  0.95046782  0.42266876     0.42600
N577        N  0.45608255  0.93632981  0.36759295     0.01000
N578        N  0.02969540  0.98337677  0.41690206     0.01100
N579        N  0.03689104  0.59590377  0.38884703    -0.46900
H580        H  0.04181836  0.54508533  0.26514467     0.06800
N581        N  0.05726903  0.54455226  0.34811288     0.01400
N582        N  0.00585829  0.50966279  0.45444701     0.01100
C583        C  0.48889560  0.50419026  0.50323211     0.42700
N584        N  0.45081941  0.94489663  0.33977182    -0.25500
C585        C  0.48144736  0.56891693  0.33635115    -0.06400
N586        N  0.47889104  0.98600954  0.26852830    -0.46600
N587        N  0.01163930  0.52088422  0.48434138    -0.46800
C588        C  0.45126543  0.55619581  0.33146890     0.42500
N589        N  0.03249488  0.57039521  0.38590442     0.01300
N590        N  0.42756285  0.97185808  0.37648744    -0.25500
N591        N  0.00889352  0.52113451  0.30046512    -0.26000
N592        N  0.43192833  0.96281505  0.40452259     0.01000
H593        H  0.39248286  0.97270972  0.35697444     0.06900
H594        H  0.44826798  0.96248430  0.48832724     0.06900
N595        N  0.03785270  0.56154371  0.41341029    -0.26100
N596        N  0.00459354  0.95992689  0.41468721    -0.25700
N597        N  0.45974080  0.52347568  0.33556241     0.01300
C598        C  0.09778577  0.54995135  0.34147651     0.42700
C599        C  0.43990661  0.92353591  0.31796684    -0.06900
N600        N  0.48076086  0.98621307  0.45248547    -0.25700
H601        H  0.49064343  0.91601846  0.41797193     0.06900
N602        N  0.07846733  0.55393858  0.32704336    -0.46900
H603        H  0.43221095  0.92378904  0.29358670     0.06900
C604        C  0.39049915  0.95576052  0.40930626     0.42600
C605        C  0.02174892  0.52638992  0.27115662    -0.06400
Co606      Co  0.45531829  0.98426061  0.33707286     0.73800
N607        N  0.44936489  0.90993854  0.36611651    -0.46600
C608        C  0.04555994  0.60435118  0.42016208     0.42800
N609        N  0.43919897  0.52802581  0.33100498    -0.46600
Co610      Co  0.46806337  0.96095136  0.41019890     0.73900
C611        C  0.46832106  0.98109168  0.48205707    -0.06900
C612        C  0.08675631  0.53764902  0.37389140    -0.06500
N613        N  0.48467821  0.54700965  0.33838334    -0.26000
N614        N  0.05009111  0.97867791  0.42203606    -0.46800
H615        H  0.05294981  0.58068063  0.46129504     0.06900
C616        C  0.40221070  0.96857723  0.37733027    -0.06900
Cl617      Cl  0.49467380  0.50347835  0.37638104    -0.49900
C618        C  0.43914525  0.90038563  0.33555090     0.42600
H619        H  0.49821462  0.59090201  0.33699384     0.06800
N620        N  0.41000501  0.95250296  0.42467578    -0.46600
C621        C  0.44373849  0.96503710  0.61106266    -0.17800
C622        C  0.44437511  0.96600078  0.64553287    -0.20000
C623        C  0.46746036  0.98830199  0.66224025     0.20700
C624        C  0.49012304  0.50989625  0.64401849    -0.02900
C625        C  0.48953499  0.50885970  0.60919094    -0.06000
C626        C  0.46620708  0.98631667  0.59267368     0.20900
C627        C  0.01234682  0.53024051  0.59094251     0.19100
C628        C  0.03546888  0.55252282  0.60766977    -0.17500
C629        C  0.03600029  0.55361029  0.64216873    -0.19700
C630        C  0.01346491  0.53238601  0.66057356     0.20600
C631        C  0.01404247  0.53304977  0.69520617    -0.32700
C632        C  0.49173814  0.51132377  0.71357409     0.01300
C633        C  0.46841649  0.98916951  0.69682904    -0.24000
C634        C  0.46583223  0.98526118  0.55809232    -0.28600
C635        C  0.48859181  0.50629953  0.53967589     0.06900
C636        C  0.01172847  0.52882064  0.55633749    -0.27300
H637        H  0.42569793  0.94754534  0.59877375     0.11700
H638        H  0.42682340  0.94922514  0.65914214     0.12800
H639        H  0.05319232  0.56909454  0.59406381     0.11900
H640        H  0.05412969  0.57099447  0.65446819     0.11100
H641        H  0.03216297  0.55021546  0.70772061     0.16500
H642        H  0.45113224  0.97234257  0.71072881     0.12400
H643        H  0.44792494  0.96779385  0.54564735     0.15300
H644        H  0.02940782  0.54512536  0.54239316     0.15000
C645        C  0.04579385  0.54368399  0.14190111    -0.17800
C646        C  0.04522136  0.54245222  0.10742788    -0.20000
C647        C  0.02336717  0.51885861  0.09088795     0.20700
C648        C  0.50204505  0.99612808  0.10928683    -0.02900
C649        C  0.50259055  0.99739754  0.14411723    -0.06000
C650        C  0.02451583  0.02134890  0.16047040     0.20900
C651        C  0.48098660  0.97490228  0.16252171     0.19100
C652        C  0.45928537  0.95118888  0.14598044    -0.17500
C653        C  0.45878294  0.94990161  0.11149393    -0.19700
C654        C  0.47993177  0.97233777  0.09290014     0.20600
C655        C  0.47900864  0.97166640  0.05825181    -0.32700
C656        C  0.49976027  0.99460930  0.03971247     0.01300
C657        C  0.02214700  0.51789116  0.05629664    -0.24000
C658        C  0.02457156  0.02275128  0.19504798    -0.28600
C659        C  0.50282971  0.00064261  0.21358345     0.06900
C660        C  0.48124078  0.97668201  0.19708381    -0.27300
H661        H  0.06277569  0.56224126  0.15404224     0.11700
H662        H  0.06175757  0.56009595  0.09368076     0.12800
H663        H  0.44255045  0.93370579  0.15972013     0.11900
H664        H  0.44165592  0.93146100  0.09934525     0.11100
H665        H  0.46174061  0.95354531  0.04585160     0.16500
H666        H  0.03830519  0.53563680  0.04229080     0.12400
H667        H  0.04127935  0.54135570  0.20736450     0.15300
H668        H  0.46441516  0.95952331  0.21112838     0.15000
C669        C  0.12698204  0.71621662  0.49321613    -0.17800
C670        C  0.11344416  0.68736089  0.48654364    -0.20000
C671        C  0.09047089  0.67414885  0.46469380     0.20700
C672        C  0.08046892  0.69000957  0.45027850    -0.02900
C673        C  0.09391031  0.71904766  0.45734650    -0.06000
C674        C  0.11765915  0.73235684  0.47837079     0.20900
C675        C  0.08416455  0.73492448  0.44243845     0.19100
C676        C  0.06070666  0.72159665  0.42133380    -0.17500
C677        C  0.04762400  0.69295106  0.41402731    -0.19700
C678        C  0.05764882  0.67709842  0.42789765     0.20600
C679        C  0.04586132  0.64883581  0.41894646    -0.32700
C680        C  0.05621824  0.63312275  0.43248994     0.01300
C681        C  0.07796814  0.64565216  0.45609442    -0.24000
C682        C  0.13212134  0.76165234  0.48334930    -0.28600
C683        C  0.12301150  0.77776849  0.46771334     0.06900
C684        C  0.09861539  0.76402701  0.44788501    -0.27300
H685        H  0.14505634  0.72600658  0.50957524     0.11700
H686        H  0.12136258  0.67550337  0.49790541     0.12800
H687        H  0.05287616  0.73348720  0.40984217     0.11900
H688        H  0.02997339  0.68330984  0.39703879     0.11100
H689        H  0.02891772  0.63915562  0.40098059     0.16500
H690        H  0.08610936  0.63366466  0.46652600     0.12400
H691        H  0.15070527  0.77198579  0.49891664     0.15300
H692        H  0.09160160  0.77621048  0.43530349     0.15000
C693        C  0.30878295  0.88723760  0.47699883    -0.17800
C694        C  0.27989852  0.87256783  0.48378297    -0.20000
C695        C  0.26211272  0.87845996  0.46619787     0.20700
C696        C  0.27360625  0.89942573  0.44157279    -0.02900
C697        C  0.30275919  0.91417628  0.43465070    -0.06000
C698        C  0.32044087  0.90803713  0.45243550     0.20900
C699        C  0.31414031  0.93487938  0.40974747     0.19100
C700        C  0.29639484  0.94081533  0.39216227    -0.17500
C701        C  0.26757504  0.92628111  0.39907368    -0.19700
C702        C  0.25596776  0.90554876  0.42370266     0.20600
C703        C  0.22703375  0.89077774  0.43063880    -0.32700
C704        C  0.21531840  0.86983326  0.45519934     0.01300
C705        C  0.23307498  0.86376157  0.47277673    -0.24000
C706        C  0.34932653  0.92242914  0.44494685    -0.28600
C707        C  0.36069336  0.94261620  0.41958454     0.06900
C708        C  0.34296257  0.94897506  0.40247623    -0.27300
H709        H  0.32199179  0.88218409  0.49086126     0.11700
H710        H  0.27145182  0.85654449  0.50277694     0.12800
H711        H  0.30479005  0.95662706  0.37292101     0.11900
H712        H  0.25433743  0.93121839  0.38507556     0.11100
H713        H  0.21352535  0.89526612  0.41648218     0.16500
H714        H  0.22430924  0.84777823  0.49183340     0.12400
H715        H  0.36277501  0.91733503  0.45821280     0.15300
H716        H  0.35146778  0.96468902  0.38314425     0.15000
C717        C  0.11882248  0.95059212  0.47095520    -0.17800
C718        C  0.13287760  0.93681779  0.47794900    -0.20000
C719        C  0.12142731  0.90881435  0.46799550     0.20700
C720        C  0.09528593  0.89445191  0.45133364    -0.02900
C721        C  0.08096078  0.90824992  0.44456259    -0.06000
C722        C  0.09294192  0.93655503  0.45410872     0.20900
C723        C  0.05479470  0.89378862  0.42793067     0.19100
C724        C  0.04323630  0.86575821  0.41817393    -0.17500
C725        C  0.05757008  0.85223119  0.42452329    -0.19700
C726        C  0.08360902  0.86641681  0.44097352     0.20600
C727        C  0.09834573  0.85314470  0.44663208    -0.32700
C728        C  0.12458026  0.86721856  0.46300627     0.01300
C729        C  0.13580483  0.89506296  0.47395016    -0.24000
C730        C  0.07887411  0.95030615  0.44652663    -0.28600
C731        C  0.05269976  0.93594045  0.43014479     0.06900
C732        C  0.04072920  0.90763582  0.42113111    -0.27300
H733        H  0.12826225  0.97228604  0.47862632     0.11700
H734        H  0.15287880  0.94818829  0.49083013     0.12800
H735        H  0.02319565  0.85435190  0.40537196     0.11900
H736        H  0.04831421  0.83066088  0.41644405     0.11100
H737        H  0.08964544  0.83201936  0.43725169     0.16500
H738        H  0.15578549  0.90610909  0.48689971     0.12400
H739        H  0.08813060  0.97209454  0.45372913     0.15300
H740        H  0.02068109  0.89650300  0.40830973     0.15000
C741        C  0.05238124  0.69890928  0.85547371    -0.17800
C742        C  0.06632178  0.72757172  0.84799218    -0.20000
C743        C  0.08704572  0.73925326  0.82344180     0.20700
C744        C  0.09328635  0.72178161  0.80559417    -0.02900
C745        C  0.07906179  0.69274577  0.81303329    -0.06000
C746        C  0.05886658  0.68141718  0.83846361     0.20900
C747        C  0.08558214  0.67524240  0.79568439     0.19100
C748        C  0.10581431  0.68686757  0.77051808    -0.17500
C749        C  0.12005726  0.71569902  0.76329531    -0.19700
C750        C  0.11425077  0.73343954  0.78099758     0.20600
C751        C  0.12937980  0.76265841  0.77508946    -0.32700
C752        C  0.12359715  0.78027843  0.79330661     0.01300
C753        C  0.10210324  0.76822851  0.81710481    -0.24000
C754        C  0.04607551  0.65299957  0.84714001    -0.28600
C755        C  0.05317202  0.63560051  0.83087333     0.06900
C756        C  0.07239842  0.64668579  0.80452497    -0.27300
H757        H  0.03683168  0.69050639  0.87495969     0.11700
H758        H  0.06122478  0.74071240  0.86182192     0.12800
H759        H  0.11101757  0.67375250  0.75681935     0.11900
H760        H  0.13592166  0.72419524  0.74416667     0.11100
H761        H  0.14574934  0.77172903  0.75653833     0.16500
H762        H  0.09775657  0.78160374  0.83165870     0.12400
H763        H  0.03096257  0.64461131  0.86707631     0.15300
H764        H  0.07791234  0.63340274  0.79175727     0.15000
C765        C  0.30919901  0.88661443  0.76834856    -0.17800
C766        C  0.28020411  0.87261781  0.76223921    -0.20000
C767        C  0.26340516  0.87950940  0.78015028     0.20700
C768        C  0.27612023  0.90114793  0.80400754    -0.02900
C769        C  0.30532472  0.91510005  0.81037616    -0.06000
C770        C  0.32192097  0.90766100  0.79261685     0.20900
C771        C  0.31776141  0.93601433  0.83507213     0.19100
C772        C  0.30116123  0.94346105  0.85239044    -0.17500
C773        C  0.27232575  0.92984322  0.84587730    -0.19700
C774        C  0.25957387  0.90844905  0.82205354     0.20600
C775        C  0.23047825  0.89389213  0.81646810    -0.32700
C776        C  0.21744006  0.87190892  0.79319682     0.01300
C777        C  0.23411249  0.86491987  0.77500314    -0.24000
C778        C  0.35073921  0.92085081  0.80008191    -0.28600
C779        C  0.36296110  0.94088688  0.82559625     0.06900
C780        C  0.34640841  0.94861802  0.84261742    -0.27300
H781        H  0.32160814  0.88065613  0.75442909     0.11700
H782        H  0.27086591  0.85618349  0.74371607     0.12800
H783        H  0.31041972  0.95959022  0.87128072     0.11900
H784        H  0.25990605  0.93576638  0.85983999     0.11100
H785        H  0.21780366  0.89916181  0.83100823     0.16500
H786        H  0.22427779  0.84816973  0.75687543     0.12400
H787        H  0.36332031  0.91466691  0.78695733     0.15300
H788        H  0.35577238  0.96418987  0.86213747     0.15000
C789        C  0.06260492  0.86785697  0.77101359    -0.17800
C790        C  0.04856503  0.88163972  0.77764227    -0.20000
C791        C  0.06049800  0.90490218  0.79898404     0.20700
C792        C  0.08682399  0.91435031  0.81385909    -0.02900
C793        C  0.10080604  0.90020667  0.80750115    -0.06000
C794        C  0.08868874  0.87691595  0.78587229     0.20900
C795        C  0.12686366  0.90935389  0.82284359     0.19100
C796        C  0.13876660  0.93255775  0.84428031    -0.17500
C797        C  0.12513561  0.94683860  0.85018922    -0.19700
C798        C  0.09922550  0.93797404  0.83502390     0.20600
C799        C  0.08555787  0.95236948  0.84051729    -0.32700
C800        C  0.05932010  0.94298380  0.82584920     0.01300
C801        C  0.04670710  0.91902913  0.80550841    -0.24000
C802        C  0.10277090  0.86300674  0.77964012    -0.28600
C803        C  0.12867190  0.87181668  0.79509899     0.06900
C804        C  0.14049042  0.89504106  0.81671384    -0.27300
H805        H  0.05298591  0.85001035  0.75436779     0.11700
H806        H  0.02841327  0.87417691  0.76593964     0.12800
H807        H  0.15872419  0.93977034  0.85634555     0.11900
H808        H  0.13486397  0.96482690  0.86664577     0.11100
H809        H  0.09516441  0.97068610  0.85649432     0.16500
H810        H  0.02650056  0.91185177  0.79407821     0.12400
H811        H  0.09355645  0.84531328  0.76276514     0.15300
H812        H  0.16007244  0.90166914  0.82940347     0.15000
C813        C  0.37463030  0.55909072  0.27647921    -0.17800
C814        C  0.36066623  0.57289882  0.26947648    -0.20000
C815        C  0.36979145  0.59918945  0.28366159     0.20700
C816        C  0.39340687  0.61182878  0.30487334    -0.02900
C817        C  0.40772037  0.59805255  0.31163086    -0.06000
C818        C  0.39812140  0.57145726  0.29754202     0.20900
C819        C  0.43155937  0.61084479  0.33253345     0.19100
C820        C  0.44056635  0.63704641  0.34689640    -0.17500
C821        C  0.42613567  0.65050614  0.34056468    -0.19700
C822        C  0.40261106  0.63812345  0.31951419     0.20600
C823        C  0.38792278  0.65139873  0.31321570    -0.32700
C824        C  0.36420386  0.63888625  0.29224033     0.01300
C825        C  0.35551159  0.61287787  0.27729367    -0.24000
C826        C  0.41221828  0.55773447  0.30469213    -0.28600
C827        C  0.43624969  0.57059134  0.32496571     0.06900
C828        C  0.44591523  0.59718535  0.33869987    -0.27300
H829        H  0.36706709  0.53873141  0.26537574     0.11700
H830        H  0.34257330  0.56289902  0.25314666     0.12800
H831        H  0.45872623  0.64709360  0.36312752     0.11900
H832        H  0.43341914  0.67065329  0.35209492     0.11100
H833        H  0.39454040  0.67114403  0.32540990     0.16500
H834        H  0.33749449  0.60318290  0.26083157     0.12400
H835        H  0.40484053  0.53727841  0.29393456     0.15300
H836        H  0.46431931  0.60701104  0.35458012     0.15000
C837        C  0.35808933  0.78768163  0.26203919    -0.17800
C838        C  0.37128885  0.81652449  0.26888370    -0.20000
C839        C  0.39266364  0.82945016  0.29284419     0.20700
C840        C  0.40090457  0.81308884  0.30984457    -0.02900
C841        C  0.38781255  0.78409544  0.30269363    -0.06000
C842        C  0.36610667  0.77121619  0.27888642     0.20900
C843        C  0.39621256  0.76793886  0.31978294     0.19100
C844        C  0.41752710  0.78073442  0.34370543    -0.17500
C845        C  0.43024852  0.80929355  0.35101286    -0.19700
C846        C  0.42202336  0.82559495  0.33433973     0.20600
C847        C  0.43441405  0.85412155  0.34205182    -0.32700
C848        C  0.42644466  0.87066388  0.32534200     0.01300
C849        C  0.40571783  0.85828537  0.30046552    -0.24000
C850        C  0.35263835  0.74209885  0.27276646    -0.28600
C851        C  0.36087578  0.72586037  0.28997324     0.06900
C852        C  0.38284970  0.73913291  0.31321004    -0.27300
H853        H  0.34150835  0.77822606  0.24365273     0.11700
H854        H  0.36460874  0.82868149  0.25560647     0.12800
H855        H  0.42418260  0.76857095  0.35702637     0.11900
H856        H  0.44647684  0.81862237  0.36982799     0.11100
H857        H  0.45037548  0.86352059  0.36119358     0.16500
H858        H  0.39922814  0.87082964  0.28772363     0.12400
H859        H  0.33577540  0.73207137  0.25475391     0.15300
H860        H  0.38897795  0.72678592  0.32711890     0.15000
C861        C  0.18936114  0.55824542  0.35200232    -0.17800
C862        C  0.21803138  0.57212795  0.34454725    -0.20000
C863        C  0.22989756  0.59344062  0.32060833     0.20700
C864        C  0.21253046  0.60018655  0.30322107    -0.02900
C865        C  0.18354296  0.58612503  0.31071990    -0.06000
C866        C  0.17206591  0.56543933  0.33565101     0.20900
C867        C  0.16626509  0.59338136  0.29401111     0.19100
C868        C  0.17798354  0.61401046  0.26925012    -0.17500
C869        C  0.20672045  0.62798844  0.26187493    -0.19700
C870        C  0.22426731  0.62158356  0.27910200     0.20600
C871        C  0.25341535  0.63668814  0.27327476    -0.32700
C872        C  0.27103966  0.63073742  0.29129816     0.01300
C873        C  0.25894530  0.60868480  0.31451212    -0.24000
C874        C  0.14373952  0.55294932  0.34455716    -0.28600
C875        C  0.12664201  0.56090100  0.32904599     0.06900
C876        C  0.13785167  0.58056362  0.30311645    -0.27300
H877        H  0.18082818  0.54226453  0.37105161     0.11700
H878        H  0.23104002  0.56656317  0.35797328     0.12800
H879        H  0.16502901  0.61974988  0.25602644     0.11900
H880        H  0.21532734  0.64420578  0.24310575     0.11100
H881        H  0.26247026  0.65335277  0.25503361     0.16500
H882        H  0.27228902  0.60410053  0.32886749     0.12400
H883        H  0.13522222  0.53746444  0.36414307     0.15300
H884        H  0.12479886  0.58671319  0.29091429     0.15000
C885        C  0.44364800  0.62812269  0.97247123    -0.17800
C886        C  0.42972528  0.64206806  0.97890449    -0.20000
C887        C  0.40175319  0.63041933  0.96860029     0.20700
C888        C  0.38757131  0.60425505  0.95211990    -0.02900
C889        C  0.40143195  0.58996447  0.94612536    -0.06000
C890        C  0.42972114  0.60211984  0.95599883     0.20900
C891        C  0.38705743  0.56366680  0.92989269     0.19100
C892        C  0.35909435  0.55194617  0.91970306    -0.17500
C893        C  0.34556765  0.56635600  0.92508342    -0.19700
C894        C  0.35966382  0.59252861  0.94113924     0.20600
C895        C  0.34644234  0.60737198  0.94572921    -0.32700
C896        C  0.36026632  0.63355733  0.96212126     0.01300
C897        C  0.38786957  0.64465238  0.97401180    -0.24000
C898        C  0.44355443  0.58809034  0.94907440    -0.28600
C899        C  0.42922453  0.56181844  0.93308485     0.06900
C900        C  0.40095318  0.54965448  0.92381570    -0.27300
H901        H  0.46533398  0.63770626  0.98032906     0.11700
H902        H  0.44096461  0.66215346  0.99156476     0.12800
H903        H  0.34778482  0.53177494  0.90722126     0.11900
H904        H  0.32407563  0.55705121  0.91659749     0.11100
H905        H  0.32559814  0.59874331  0.93544939     0.16500
H906        H  0.39873441  0.66447699  0.98720731     0.12400
H907        H  0.46533617  0.59743377  0.95644573     0.15300
H908        H  0.38988392  0.52951735  0.91124170     0.15000
C909        C  0.42565800  0.77995819  0.90728475    -0.17800
C910        C  0.43935725  0.80866896  0.90017241    -0.20000
C911        C  0.43068229  0.82523690  0.91511467     0.20700
C912        C  0.40840966  0.81294525  0.93803434    -0.02900
C913        C  0.39453077  0.78392669  0.94515803    -0.06000
C914        C  0.40305051  0.76734554  0.92944179     0.20900
C915        C  0.37177087  0.77141609  0.96741041     0.19100
C916        C  0.36347740  0.78813835  0.98284784    -0.17500
C917        C  0.37728734  0.81693427  0.97585150    -0.19700
C918        C  0.39961842  0.82950147  0.95327637     0.20600
C919        C  0.41286803  0.85813053  0.94504179    -0.32700
C920        C  0.43440623  0.87019084  0.92133793     0.01300
C921        C  0.44347857  0.85372139  0.90692586    -0.24000
C922        C  0.38842081  0.73833095  0.93551200    -0.28600
C923        C  0.36530930  0.72552397  0.95712206     0.06900
C924        C  0.35738566  0.74233896  0.97333328    -0.27300
H925        H  0.43251324  0.76753204  0.89510805     0.11700
H926        H  0.45650865  0.81784483  0.88262617     0.12800
H927        H  0.34607673  0.77887545  0.00005078     0.11900
H928        H  0.37025964  0.82930685  0.98778846     0.11100
H929        H  0.40574795  0.87073681  0.95616636     0.16500
H930        H  0.46030245  0.86297845  0.88894812     0.12400
H931        H  0.39444658  0.72557900  0.92245416     0.15300
H932        H  0.33983354  0.73272188  0.99034221     0.15000
C933        C  0.18708912  0.56047087  0.90420364    -0.17800
C934        C  0.21586860  0.57372097  0.91088978    -0.20000
C935        C  0.22927520  0.59677015  0.93251563     0.20700
C936        C  0.21347804  0.60632062  0.94796376    -0.02900
C937        C  0.18436298  0.59276619  0.94147025    -0.06000
C938        C  0.17121337  0.56994656  0.91918981     0.20900
C939        C  0.16852814  0.60233377  0.95684868     0.19100
C940        C  0.18196305  0.62536135  0.97850886    -0.17500
C941        C  0.21087501  0.63895815  0.98470287    -0.19700
C942        C  0.22683209  0.62967416  0.96948451     0.20600
C943        C  0.25594381  0.64355232  0.97505381    -0.32700
C944        C  0.27188585  0.63433291  0.95947382     0.01300
C945        C  0.25828881  0.61074406  0.93846477    -0.24000
C946        C  0.14253581  0.55731465  0.91186889    -0.28600
C947        C  0.12669196  0.56682740  0.92695312     0.06900
C948        C  0.13967872  0.58904870  0.94980348    -0.27300
H949        H  0.17727884  0.54291695  0.88713436     0.11700
H950        H  0.22771224  0.56612489  0.89886015     0.12800
H951        H  0.17015075  0.63303760  0.99043110     0.11900
H952        H  0.22079121  0.65685126  0.00127950     0.10700
H953        H  0.26623874  0.66158417  0.99142947     0.16500
H954        H  0.27046978  0.60378627  0.92587714     0.12400
H955        H  0.13252437  0.54015030  0.89425294     0.15300
H956        H  0.12760861  0.59667946  0.96116437     0.15000
C957        C  0.84625913  0.14973572  0.96481511     0.03100
C958        C  0.86201797  0.17932783  0.96285986    -0.13000
C959        C  0.84863859  0.19442936  0.96145429     0.00600
C960        C  0.81908350  0.17955620  0.96158982    -0.11500
C961        C  0.80296497  0.15007082  0.96353110     0.03100
C962        C  0.81672756  0.13550207  0.96633877    -0.11000
H963        H  0.88472272  0.19070192  0.96136141     0.08700
H964        H  0.80859379  0.19085868  0.95833744     0.06200
H965        H  0.80416637  0.11283767  0.96898275     0.06100
C966        C  0.84766413  0.15226637  0.28757655     0.03100
C967        C  0.86129382  0.18167611  0.28561545    -0.13000
C968        C  0.84591604  0.19477684  0.28558530     0.00600
C969        C  0.81632840  0.17789748  0.28574145    -0.11500
C970        C  0.80219147  0.14833000  0.28721894     0.03100
C971        C  0.81809214  0.13579177  0.28794436    -0.11000
H972        H  0.88407785  0.19454867  0.28506446     0.08700
H973        H  0.80435925  0.18782301  0.28705461     0.06200
H974        H  0.80737570  0.11313205  0.29001270     0.06100
C975        C  0.64288900  0.35612698  0.79012566     0.03100
C976        C  0.67238471  0.37057837  0.78910454    -0.13000
C977        C  0.68629172  0.35601376  0.78897089     0.00600
C978        C  0.67018805  0.32636607  0.78828715    -0.11500
C979        C  0.64055402  0.31142889  0.78895288     0.03100
C980        C  0.62718369  0.32656264  0.78945126    -0.11000
H981        H  0.68469018  0.39338216  0.78917800     0.08700
H982        H  0.68069353  0.31494428  0.78955177     0.06200
H983        H  0.60444461  0.31519960  0.79087790     0.06100
C984        C  0.64051850  0.35300635  0.46685763     0.03100
C985        C  0.62593040  0.32370213  0.47157215    -0.13000
C986        C  0.63975734  0.30911478  0.46972891     0.00600
C987        C  0.66914832  0.32451535  0.46563318    -0.11500
C988        C  0.68446841  0.35399326  0.46199323     0.03100
C989        C  0.66991177  0.36800493  0.46254876    -0.11000
H990        H  0.60341070  0.31190999  0.47559803     0.08700
H991        H  0.67989696  0.31340889  0.46319089     0.06200
H992        H  0.68142753  0.39052159  0.45854675     0.06100
C993        C  0.59712776  0.05466777  0.91694145     0.42500
N994        N  0.56163035  0.04024397  0.88480574     0.01300
C995        C  0.93071536  0.01679722  0.92078557    -0.06500
H996        H  0.95482103  0.45552985  0.98858908     0.06800
C997        C  0.95840626  0.41062604  0.87753764    -0.06900
Co998      Co  0.51496687  0.04228757  0.91647141     0.74200
N999        N  0.97834714  0.48852121  0.95310781    -0.26100
Co1000     Co  0.95250480  0.47693605  0.91129240     0.74100
C1001       C  0.94632761  0.39938883  0.90991180     0.42600
N1002       N  0.51304781  0.46761790  0.83507935     0.01000
N1003       N  0.95327443  0.44058675  0.90474527     0.01100
N1004       N  0.97180569  0.05903749  0.92506820    -0.46900
H1005       H  0.57483787  0.06226093  0.95945897     0.06800
N1006       N  0.50219624  0.01330425  0.95502497     0.01400
N1007       N  0.92759627  0.46624855  0.86885635     0.01100
C1008       C  0.89240149  0.45250789  0.83621128     0.42700
N1009       N  0.53681548  0.49238906  0.83771108    -0.25500
C1010       C  0.53002993  0.09544639  0.87556730    -0.06400
N1011       N  0.58748869  0.04543751  0.88615786    -0.46600
N1012       N  0.90181415  0.46129354  0.86723558    -0.46800
C1013       C  0.54178523  0.10652613  0.84294648     0.42500
N1014       N  0.97611405  0.03847994  0.91930780     0.01300
N1015       N  0.51130462  0.01761524  0.80070488    -0.25500
N1016       N  0.55363392  0.04566474  0.91283831    -0.26000
N1017       N  0.98739320  0.49294483  0.79860665     0.01000
H1018       H  0.53571719  0.05033741  0.76532506     0.06900
H1019       H  0.91503731  0.44533414  0.79372652     0.06900
N1020       N  0.95245810  0.01359993  0.91701131    -0.26100
N1021       N  0.96175244  0.43601076  0.87651428    -0.25700
N1022       N  0.53566459  0.06561852  0.84877540     0.01300
C1023       C  0.99729934  0.49531906  0.00329103     0.42700
C1024       C  0.55842004  0.48870222  0.83584255    -0.06900
N1025       N  0.93574708  0.46107502  0.84074385    -0.25700
H1026       H  0.96231678  0.40068110  0.85731449     0.06900
N1027       N  0.51397974  0.01829231  0.98461156    -0.46900
H1028       H  0.58049812  0.50519823  0.83668516     0.06900
C1029       C  0.99335353  0.01071142  0.75006439     0.42600
C1030       C  0.57478885  0.05508969  0.93472089    -0.06400
Co1031     Co  0.53676013  0.02926474  0.84262761     0.73800
N1032       N  0.51713692  0.44674109  0.83084468    -0.46600
C1033       C  0.94362943  0.04692476  0.92611890     0.42800
N1034       N  0.54498144  0.08697402  0.82788679    -0.46600
Co1035     Co  0.97428188  0.46408336  0.83726718     0.73900
C1036       C  0.91484708  0.45215008  0.81858493    -0.06900
C1037       C  0.97354811  0.47549803  0.98232921    -0.06500
N1038       N  0.52715171  0.07025531  0.87696612    -0.26000
N1039       N  0.94339784  0.41896458  0.92528407    -0.46800
H1040       H  0.90875309  0.99996328  0.92104484     0.06900
C1041       C  0.51673817  0.03051468  0.77137752    -0.06900
Cl1042     Cl  0.99461372  0.00315395  0.87690901    -0.49900
C1043       C  0.54525369  0.45843567  0.83129490     0.42600
H1044       H  0.52586004  0.10531015  0.89564647     0.06800
N1045       N  0.97616003  0.48786158  0.76869409    -0.46600
C1046       C  0.00179342  0.50300196  0.24993178     0.42500
N1047       N  0.98406215  0.49734911  0.29835277     0.01300
C1048       C  0.54646769  0.08167327  0.43646873    -0.06500
H1049       H  0.59649501  0.03276761  0.39353264     0.06800
C1050       C  0.50761172  0.43792968  0.41775572    -0.06900
Co1051     Co  0.52116226  0.04624810  0.34284040     0.74200
N1052       N  0.56181249  0.03524978  0.37580559    -0.26100
Co1053     Co  0.53416448  0.02262868  0.41548943     0.74100
C1054       C  0.53783377  0.45046785  0.42266885     0.42600
N1055       N  0.95608253  0.43632979  0.36759297     0.01000
N1056       N  0.52969542  0.48337680  0.41690208     0.01100
N1057       N  0.53689105  0.09590379  0.38884704    -0.46900
H1058       H  0.54181831  0.04508534  0.26514467     0.06800
N1059       N  0.55726904  0.04455230  0.34811287     0.01400
N1060       N  0.50585829  0.00966281  0.45444701     0.01100
C1061       C  0.98889557  0.00419024  0.50323210     0.42700
N1062       N  0.95081946  0.44489663  0.33977182    -0.25500
C1063       C  0.98144739  0.06891693  0.33635112    -0.06400
N1064       N  0.97889105  0.48600956  0.26852829    -0.46600
N1065       N  0.51163931  0.02088424  0.48434137    -0.46800
C1066       C  0.95126547  0.05619582  0.33146886     0.42500
N1067       N  0.53249489  0.07039523  0.38590442     0.01300
N1068       N  0.92756285  0.47185807  0.37648742    -0.25500
N1069       N  0.50889349  0.02113452  0.30046513    -0.26000
N1070       N  0.93192833  0.46281505  0.40452259     0.01000
H1071       H  0.89248287  0.47270972  0.35697442     0.06900
H1072       H  0.94826795  0.46248432  0.48832722     0.06900
N1073       N  0.53785270  0.06154372  0.41341029    -0.26100
N1074       N  0.50459356  0.45992692  0.41468725    -0.25700
N1075       N  0.95974081  0.02347568  0.33556241     0.01300
C1076       C  0.59778578  0.04995140  0.34147652     0.42700
C1077       C  0.93990669  0.42353593  0.31796682    -0.06900
N1078       N  0.98076085  0.48621306  0.45248546    -0.25700
H1079       H  0.99064343  0.41601847  0.41797199     0.06900
N1080       N  0.57846735  0.05393864  0.32704337    -0.46900
H1081       H  0.93221108  0.42378909  0.29358666     0.06900
C1082       C  0.89049915  0.45576055  0.40930625     0.42600
C1083       C  0.52174889  0.02638992  0.27115662    -0.06400
Co1084     Co  0.95531832  0.48426061  0.33707286     0.73800
N1085       N  0.94936482  0.40993850  0.36611654    -0.46600
C1086       C  0.54555996  0.10435119  0.42016210     0.42800
N1087       N  0.93919899  0.02802582  0.33100497    -0.46600
Co1088     Co  0.96806335  0.46095135  0.41019891     0.73900
C1089       C  0.96832104  0.48109169  0.48205706    -0.06900
C1090       C  0.58675630  0.03764902  0.37389139    -0.06500
N1091       N  0.98467823  0.04700964  0.33838332    -0.26000
N1092       N  0.55009113  0.47867794  0.42203610    -0.46800
H1093       H  0.55294981  0.08068061  0.46129506     0.06900
C1094       C  0.90221071  0.46857723  0.37733025    -0.06900
Cl1095     Cl  0.99467379  0.00347834  0.37638103    -0.49900
C1096       C  0.93914524  0.40038562  0.33555091     0.42600
H1097       H  0.99821466  0.09090201  0.33699381     0.06800
N1098       N  0.91000501  0.45250299  0.42467578    -0.46600
C1099       C  0.94373844  0.46503711  0.61106265    -0.17800
C1100       C  0.94437505  0.46600078  0.64553286    -0.20000
C1101       C  0.96746033  0.48830199  0.66224023     0.20700
C1102       C  0.99012305  0.00989621  0.64401849    -0.02900
C1103       C  0.98953500  0.00885967  0.60919094    -0.06000
C1104       C  0.96620704  0.48631668  0.59267366     0.20900
C1105       C  0.51234686  0.03024050  0.59094251     0.19100
C1106       C  0.53546892  0.05252280  0.60766978    -0.17500
C1107       C  0.53600032  0.05361029  0.64216875    -0.19700
C1108       C  0.51346494  0.03238603  0.66057357     0.20600
C1109       C  0.51404248  0.03304982  0.69520619    -0.32700
C1110       C  0.99173813  0.01132375  0.71357409     0.01300
C1111       C  0.96841647  0.48916950  0.69682902    -0.24000
C1112       C  0.96583219  0.48526119  0.55809231    -0.28600
C1113       C  0.98859179  0.00629952  0.53967588     0.06900
C1114       C  0.51172850  0.02882063  0.55633750    -0.27300
H1115       H  0.92569788  0.44754536  0.59877373     0.11700
H1116       H  0.92682333  0.44922515  0.65914213     0.12800
H1117       H  0.55319238  0.06909451  0.59406382     0.11900
H1118       H  0.55412973  0.07099449  0.65446820     0.11100
H1119       H  0.53216299  0.05021554  0.70772064     0.16500
H1120       H  0.95113222  0.47234258  0.71072878     0.12400
H1121       H  0.94792488  0.46779386  0.54564734     0.15300
H1122       H  0.52940785  0.04512536  0.54239316     0.15000
C1123       C  0.54579380  0.04368399  0.14190111    -0.17800
C1124       C  0.54522132  0.04245221  0.10742788    -0.20000
C1125       C  0.52336713  0.01885860  0.09088795     0.20700
C1126       C  0.00204510  0.49612808  0.10928683    -0.02900
C1127       C  0.00259061  0.49739753  0.14411722    -0.06000
C1128       C  0.52451584  0.52134890  0.16047041     0.20900
C1129       C  0.98098666  0.47490226  0.16252171     0.19100
C1130       C  0.95928542  0.45118887  0.14598044    -0.17500
C1131       C  0.95878297  0.44990162  0.11149393    -0.19700
C1132       C  0.97993181  0.47233777  0.09290014     0.20600
C1133       C  0.97900869  0.47166641  0.05825181    -0.32700
C1134       C  0.99976032  0.49460931  0.03971246     0.01300
C1135       C  0.52214698  0.01789113  0.05629665    -0.24000
C1136       C  0.52457156  0.52275128  0.19504798    -0.28600
C1137       C  0.00282975  0.50064261  0.21358345     0.06900
C1138       C  0.98124084  0.47668199  0.19708381    -0.27300
H1139       H  0.56277565  0.06224126  0.15404223     0.11700
H1140       H  0.56175752  0.06009593  0.09368078     0.12800
H1141       H  0.94255050  0.43370577  0.15972014     0.11900
H1142       H  0.94165595  0.43146102  0.09934525     0.11100
H1143       H  0.96174068  0.45354533  0.04585161     0.16500
H1144       H  0.53830517  0.03563675  0.04229081     0.12400
H1145       H  0.54127935  0.04135567  0.20736451     0.15300
H1146       H  0.96441522  0.45952329  0.21112838     0.15000
C1147       C  0.62698191  0.21621659  0.49321637    -0.17800
C1148       C  0.61344404  0.18736086  0.48654383    -0.20000
C1149       C  0.59047085  0.17414884  0.46469388     0.20700
C1150       C  0.58046892  0.19000958  0.45027851    -0.02900
C1151       C  0.59391030  0.21904767  0.45734652    -0.06000
C1152       C  0.61765908  0.23235682  0.47837092     0.20900
C1153       C  0.58416458  0.23492450  0.44243841     0.19100
C1154       C  0.56070672  0.22159668  0.42133369    -0.17500
C1155       C  0.54762407  0.19295109  0.41402721    -0.19700
C1156       C  0.55764886  0.17709843  0.42789761     0.20600
C1157       C  0.54586135  0.14883582  0.41894645    -0.32700
C1158       C  0.55621825  0.13312275  0.43248996     0.01300
C1159       C  0.57796811  0.14565215  0.45609448    -0.24000
C1160       C  0.63212126  0.26165233  0.48334942    -0.28600
C1161       C  0.62301147  0.27776850  0.46771338     0.06900
C1162       C  0.59861540  0.26402702  0.44788499    -0.27300
H1163       H  0.64505614  0.22600652  0.50957558     0.11700
H1164       H  0.62136240  0.17550332  0.49790568     0.12800
H1165       H  0.55287626  0.23348726  0.40984201     0.11900
H1166       H  0.52997347  0.18330986  0.39703863     0.11100
H1167       H  0.52891776  0.13915563  0.40098055     0.16500
H1168       H  0.58610932  0.13366464  0.46652610     0.12400
H1169       H  0.65070513  0.27198575  0.49891680     0.15300
H1170       H  0.59160163  0.27621051  0.43530343     0.15000
C1171       C  0.80878295  0.38723762  0.47699879    -0.17800
C1172       C  0.77989852  0.37256785  0.48378293    -0.20000
C1173       C  0.76211271  0.37845999  0.46619785     0.20700
C1174       C  0.77360623  0.39942576  0.44157279    -0.02900
C1175       C  0.80275918  0.41417634  0.43465071    -0.06000
C1176       C  0.82044087  0.40803718  0.45243550     0.20900
C1177       C  0.81414030  0.43487946  0.40974750     0.19100
C1178       C  0.79639481  0.44081538  0.39216227    -0.17500
C1179       C  0.76757501  0.42628113  0.39907367    -0.19700
C1180       C  0.75596774  0.40554878  0.42370266     0.20600
C1181       C  0.72703373  0.39077773  0.43063879    -0.32700
C1182       C  0.71531839  0.36983325  0.45519932     0.01300
C1183       C  0.73307497  0.36376158  0.47277672    -0.24000
C1184       C  0.84932652  0.42242919  0.44494684    -0.28600
C1185       C  0.86069336  0.44261626  0.41958455     0.06900
C1186       C  0.84296257  0.44897514  0.40247629    -0.27300
H1187       H  0.82199180  0.38218410  0.49086121     0.11700
H1188       H  0.77145183  0.35654451  0.50277686     0.12800
H1189       H  0.80479002  0.45662711  0.37292099     0.11900
H1190       H  0.75433739  0.43121838  0.38507553     0.11100
H1191       H  0.71352533  0.39526610  0.41648218     0.16500
H1192       H  0.72430924  0.34777824  0.49183338     0.12400
H1193       H  0.86277499  0.41733506  0.45821276     0.15300
H1194       H  0.85146777  0.46468910  0.38314435     0.15000
C1195       C  0.61882251  0.45059215  0.47095516    -0.17800
C1196       C  0.63287764  0.43681783  0.47794895    -0.20000
C1197       C  0.62142734  0.40881439  0.46799545     0.20700
C1198       C  0.59528594  0.39445193  0.45133366    -0.02900
C1199       C  0.58096078  0.40824994  0.44456262    -0.06000
C1200       C  0.59294195  0.43655506  0.45410870     0.20900
C1201       C  0.55479469  0.39378862  0.42793073     0.19100
C1202       C  0.54323627  0.36575820  0.41817405    -0.17500
C1203       C  0.55757003  0.35223117  0.42452342    -0.19700
C1204       C  0.58360900  0.36641681  0.44097358     0.20600
C1205       C  0.59834573  0.35314472  0.44663211    -0.32700
C1206       C  0.62458029  0.36721860  0.46300622     0.01300
C1207       C  0.63580489  0.39506302  0.47395005    -0.24000
C1208       C  0.57887415  0.45030618  0.44652660    -0.28600
C1209       C  0.55269978  0.43594047  0.43014482     0.06900
C1210       C  0.54072919  0.40763582  0.42113117    -0.27300
H1211       H  0.62826230  0.47228606  0.47862627     0.11700
H1212       H  0.65287882  0.44818832  0.49083006     0.12800
H1213       H  0.52319561  0.35435189  0.40537211     0.11900
H1214       H  0.54831413  0.33066083  0.41644422     0.11100
H1215       H  0.58964542  0.33201937  0.43725175     0.16500
H1216       H  0.65578557  0.40610917  0.48689953     0.12400
H1217       H  0.58813065  0.47209457  0.45372905     0.15300
H1218       H  0.52068103  0.39650298  0.40830983     0.15000
C1219       C  0.55238127  0.19890927  0.85547373    -0.17800
C1220       C  0.56632180  0.22757170  0.84799219    -0.20000
C1221       C  0.58704575  0.23925325  0.82344182     0.20700
C1222       C  0.59328636  0.22178161  0.80559416    -0.02900
C1223       C  0.57906182  0.19274577  0.81303329    -0.06000
C1224       C  0.55886663  0.18141718  0.83846363     0.20900
C1225       C  0.58558217  0.17524240  0.79568438     0.19100
C1226       C  0.60581432  0.18686756  0.77051803    -0.17500
C1227       C  0.62005725  0.21569901  0.76329525    -0.19700
C1228       C  0.61425077  0.23343954  0.78099754     0.20600
C1229       C  0.62937979  0.26265840  0.77508944    -0.32700
C1230       C  0.62359717  0.28027843  0.79330663     0.01300
C1231       C  0.60210330  0.26822851  0.81710486    -0.24000
C1232       C  0.54607558  0.15299958  0.84714005    -0.28600
C1233       C  0.55317208  0.13560053  0.83087336     0.06900
C1234       C  0.57239847  0.14668580  0.80452500    -0.27300
H1235       H  0.53683169  0.19050637  0.87495972     0.11700
H1236       H  0.56122481  0.24071237  0.86182192     0.12800
H1237       H  0.61101757  0.17375249  0.75681928     0.11900
H1238       H  0.63592162  0.22419524  0.74416658     0.11100
H1239       H  0.64574931  0.27172902  0.75653828     0.16500
H1240       H  0.59775666  0.28160374  0.83165879     0.12400
H1241       H  0.53096264  0.14461132  0.86707637     0.15300
H1242       H  0.57791238  0.13340276  0.79175732     0.15000
C1243       C  0.80919898  0.38661434  0.76834862    -0.17800
C1244       C  0.78020408  0.37261772  0.76223925    -0.20000
C1245       C  0.76340514  0.37950934  0.78015028     0.20700
C1246       C  0.77612021  0.40114789  0.80400754    -0.02900
C1247       C  0.80532470  0.41510000  0.81037616    -0.06000
C1248       C  0.82192094  0.40766094  0.79261688     0.20900
C1249       C  0.81776139  0.43601430  0.83507209     0.19100
C1250       C  0.80116122  0.44346103  0.85239041    -0.17500
C1251       C  0.77232574  0.42984320  0.84587727    -0.19700
C1252       C  0.75957385  0.40844902  0.82205352     0.20600
C1253       C  0.73047823  0.39389211  0.81646807    -0.32700
C1254       C  0.71744005  0.37190890  0.79319679     0.01300
C1255       C  0.73411247  0.36491982  0.77500313    -0.24000
C1256       C  0.85073919  0.42085074  0.80008194    -0.28600
C1257       C  0.86296107  0.44088685  0.82559624     0.06900
C1258       C  0.84640838  0.44861800  0.84261737    -0.27300
H1259       H  0.82160811  0.38065604  0.75442919     0.11700
H1260       H  0.77086586  0.35618337  0.74371609     0.12800
H1261       H  0.81041971  0.45959020  0.87128067     0.11900
H1262       H  0.75990603  0.43576638  0.85983995     0.11100
H1263       H  0.71780364  0.39916181  0.83100818     0.16500
H1264       H  0.72427776  0.34816965  0.75687542     0.12400
H1265       H  0.86332028  0.41466682  0.78695741     0.15300
H1266       H  0.85577236  0.46418987  0.86213739     0.15000
C1267       C  0.56260497  0.36785704  0.77101346    -0.17800
C1268       C  0.54856506  0.38163978  0.77764215    -0.20000
C1269       C  0.56049800  0.40490218  0.79898398     0.20700
C1270       C  0.58682396  0.41435029  0.81385906    -0.02900
C1271       C  0.60080603  0.40020665  0.80750111    -0.06000
C1272       C  0.58868876  0.37691597  0.78587220     0.20900
C1273       C  0.62686363  0.40935386  0.82284358     0.19100
C1274       C  0.63876657  0.43255772  0.84428031    -0.17500
C1275       C  0.62513558  0.44683857  0.85018921    -0.19700
C1276       C  0.59922547  0.43797401  0.83502388     0.20600
C1277       C  0.58555782  0.45236942  0.84051727    -0.32700
C1278       C  0.55932004  0.44298374  0.82584921     0.01300
C1279       C  0.54670708  0.41902910  0.80550838    -0.24000
C1280       C  0.60277092  0.36300675  0.77964001    -0.28600
C1281       C  0.62867189  0.37181666  0.79509893     0.06900
C1282       C  0.64049040  0.39504103  0.81671381    -0.27300
H1283       H  0.55298600  0.35001049  0.75436761     0.11700
H1284       H  0.52841335  0.37417700  0.76593946     0.12800
H1285       H  0.65872415  0.43977031  0.85634555     0.11900
H1286       H  0.63486393  0.46482687  0.86664575     0.11100
H1287       H  0.59516435  0.47068603  0.85649428     0.16500
H1288       H  0.52650057  0.41185174  0.79407818     0.12400
H1289       H  0.59355649  0.34531330  0.76276499     0.15300
H1290       H  0.66007241  0.40166910  0.82940344     0.15000
C1291       C  0.87463029  0.05909072  0.27647917    -0.17800
C1292       C  0.86066620  0.07289881  0.26947649    -0.20000
C1293       C  0.86979143  0.09918944  0.28366160     0.20700
C1294       C  0.89340686  0.11182878  0.30487333    -0.02900
C1295       C  0.90772037  0.09805255  0.31163080    -0.06000
C1296       C  0.89812141  0.07145727  0.29754195     0.20900
C1297       C  0.93155940  0.11084481  0.33253337     0.19100
C1298       C  0.94056639  0.13704643  0.34689634    -0.17500
C1299       C  0.92613568  0.15050614  0.34056465    -0.19700
C1300       C  0.90261105  0.13812345  0.31951418     0.20600
C1301       C  0.88792277  0.15139873  0.31321567    -0.32700
C1302       C  0.86420385  0.13888625  0.29224032     0.01300
C1303       C  0.85551157  0.11287787  0.27729368    -0.24000
C1304       C  0.91221833  0.05773451  0.30469203    -0.28600
C1305       C  0.93624974  0.07059137  0.32496561     0.06900
C1306       C  0.94591527  0.09718538  0.33869976    -0.27300
H1307       H  0.86706707  0.03873141  0.26537570     0.11700
H1308       H  0.84257327  0.06289900  0.25314670     0.12800
H1309       H  0.95872632  0.14709365  0.36312746     0.11900
H1310       H  0.93341914  0.17065328  0.35209489     0.11100
H1311       H  0.89454041  0.17114404  0.32540986     0.16500
H1312       H  0.83749448  0.10318290  0.26083160     0.12400
H1313       H  0.90484060  0.03727848  0.29393445     0.15300
H1314       H  0.96431936  0.10701107  0.35458001     0.15000
C1315       C  0.85808928  0.28768161  0.26203922    -0.17800
C1316       C  0.87128880  0.31652447  0.26888373    -0.20000
C1317       C  0.89266360  0.32945015  0.29284422     0.20700
C1318       C  0.90090454  0.31308883  0.30984457    -0.02900
C1319       C  0.88781252  0.28409544  0.30269362    -0.06000
C1320       C  0.86610663  0.27121618  0.27888643     0.20900
C1321       C  0.89621255  0.26793887  0.31978291     0.19100
C1322       C  0.91752710  0.28073443  0.34370537    -0.17500
C1323       C  0.93024850  0.30929355  0.35101284    -0.19700
C1324       C  0.92202333  0.32559495  0.33433973     0.20600
C1325       C  0.93441401  0.35412154  0.34205184    -0.32700
C1326       C  0.92644463  0.37066386  0.32534201     0.01300
C1327       C  0.90571778  0.35828536  0.30046555    -0.24000
C1328       C  0.85263833  0.24209884  0.27276646    -0.28600
C1329       C  0.86087578  0.22586037  0.28997321     0.06900
C1330       C  0.88284971  0.23913291  0.31321000    -0.27300
H1331       H  0.84150830  0.27822605  0.24365277     0.11700
H1332       H  0.86460868  0.32868147  0.25560652     0.12800
H1333       H  0.92418262  0.26857097  0.35702626     0.11900
H1334       H  0.94647683  0.31862236  0.36982798     0.11100
H1335       H  0.95037547  0.36352058  0.36119360     0.16500
H1336       H  0.89922809  0.37082962  0.28772367     0.12400
H1337       H  0.83577536  0.23207137  0.25475393     0.15300
H1338       H  0.88897797  0.22678592  0.32711887     0.15000
C1339       C  0.68936113  0.05824538  0.35200227    -0.17800
C1340       C  0.71803137  0.07212793  0.34454720    -0.20000
C1341       C  0.72989755  0.09344062  0.32060829     0.20700
C1342       C  0.71253045  0.10018656  0.30322105    -0.02900
C1343       C  0.68354295  0.08612503  0.31071987    -0.06000
C1344       C  0.67206590  0.06543931  0.33565097     0.20900
C1345       C  0.66626508  0.09338136  0.29401110     0.19100
C1346       C  0.67798352  0.11401046  0.26925011    -0.17500
C1347       C  0.70672043  0.12798845  0.26187492    -0.19700
C1348       C  0.72426730  0.12158358  0.27910198     0.20600
C1349       C  0.75341534  0.13668817  0.27327474    -0.32700
C1350       C  0.77103966  0.13073743  0.29129812     0.01300
C1351       C  0.75894529  0.10868478  0.31451206    -0.24000
C1352       C  0.64373951  0.05294931  0.34455714    -0.28600
C1353       C  0.62664201  0.06090101  0.32904599     0.06900
C1354       C  0.63785165  0.08056362  0.30311644    -0.27300
H1355       H  0.68082816  0.04226446  0.37105154     0.11700
H1356       H  0.73104002  0.06656314  0.35797321     0.12800
H1357       H  0.66502901  0.11974986  0.25602644     0.11900
H1358       H  0.71532731  0.14420580  0.24310574     0.11100
H1359       H  0.76247025  0.15335281  0.25503361     0.16500
H1360       H  0.77228902  0.10410049  0.32886742     0.12400
H1361       H  0.63522222  0.03746444  0.36414307     0.15300
H1362       H  0.62479884  0.08671317  0.29091427     0.15000
C1363       C  0.94364797  0.12812264  0.97247126    -0.17800
C1364       C  0.92972524  0.14206801  0.97890451    -0.20000
C1365       C  0.90175316  0.13041927  0.96860032     0.20700
C1366       C  0.88757127  0.10425499  0.95211995    -0.02900
C1367       C  0.90143190  0.08996440  0.94612540    -0.06000
C1368       C  0.92972109  0.10211978  0.95599885     0.20900
C1369       C  0.88705739  0.06366675  0.92989270     0.19100
C1370       C  0.85909431  0.05194613  0.91970305    -0.17500
C1371       C  0.84556762  0.06635597  0.92508342    -0.19700
C1372       C  0.85966378  0.09252855  0.94113928     0.20600
C1373       C  0.84644231  0.10737193  0.94572922    -0.32700
C1374       C  0.86026629  0.13355728  0.96212127     0.01300
C1375       C  0.88786954  0.14465233  0.97401181    -0.24000
C1376       C  0.94355437  0.08809028  0.94907440    -0.28600
C1377       C  0.92922448  0.06181838  0.93308485     0.06900
C1378       C  0.90095314  0.04965443  0.92381569    -0.27300
H1379       H  0.96533395  0.13770621  0.98032907     0.11700
H1380       H  0.94096457  0.16215341  0.99156475     0.12800
H1381       H  0.84778480  0.03177492  0.90722122     0.11900
H1382       H  0.82407561  0.05705119  0.91659747     0.11100
H1383       H  0.82559812  0.09874327  0.93544939     0.16500
H1384       H  0.89873438  0.16447694  0.98720729     0.12400
H1385       H  0.96533609  0.09743371  0.95644570     0.15300
H1386       H  0.88988388  0.02951730  0.91124168     0.15000
C1387       C  0.92565796  0.27995815  0.90728466    -0.17800
C1388       C  0.93935723  0.30866893  0.90017234    -0.20000
C1389       C  0.93068229  0.32523687  0.91511463     0.20700
C1390       C  0.90840966  0.31294523  0.93803431    -0.02900
C1391       C  0.89453077  0.28392666  0.94515800    -0.06000
C1392       C  0.90305049  0.26734551  0.92944174     0.20900
C1393       C  0.87177090  0.27141606  0.96741045     0.19100
C1394       C  0.86347744  0.28813832  0.98284788    -0.17500
C1395       C  0.87728736  0.31693423  0.97585149    -0.19700
C1396       C  0.89961844  0.32950144  0.95327637     0.20600
C1397       C  0.91286805  0.35813051  0.94504182    -0.32700
C1398       C  0.93440624  0.37019082  0.92133794     0.01300
C1399       C  0.94347858  0.35372137  0.90692584    -0.24000
C1400       C  0.88842079  0.23833091  0.93551194    -0.28600
C1401       C  0.86530931  0.22552394  0.95712206     0.06900
C1402       C  0.85738570  0.24233894  0.97333334    -0.27300
H1403       H  0.93251317  0.26753201  0.89510793     0.11700
H1404       H  0.95650863  0.31784480  0.88262610     0.12800
H1405       H  0.84607677  0.27887544  0.00005087     0.11900
H1406       H  0.87025967  0.32930681  0.98778843     0.11100
H1407       H  0.90574798  0.37073680  0.95616642     0.16500
H1408       H  0.96030246  0.36297844  0.88894808     0.12400
H1409       H  0.89444653  0.22557895  0.92245408     0.15300
H1410       H  0.83983359  0.23272185  0.99034233     0.15000
C1411       C  0.68708914  0.06047087  0.90420363    -0.17800
C1412       C  0.71586862  0.07372095  0.91088976    -0.20000
C1413       C  0.72927521  0.09677013  0.93251562     0.20700
C1414       C  0.71347807  0.10632061  0.94796375    -0.02900
C1415       C  0.68436301  0.09276618  0.94147025    -0.06000
C1416       C  0.67121339  0.06994654  0.91918983     0.20900
C1417       C  0.66852817  0.10233375  0.95684870     0.19100
C1418       C  0.68196308  0.12536133  0.97850887    -0.17500
C1419       C  0.71087503  0.13895813  0.98470288    -0.19700
C1420       C  0.72683211  0.12967415  0.96948450     0.20600
C1421       C  0.75594383  0.14355231  0.97505381    -0.32700
C1422       C  0.77188586  0.13433290  0.95947382     0.01300
C1423       C  0.75828882  0.11074405  0.93846477    -0.24000
C1424       C  0.64253583  0.05731461  0.91186893    -0.28600
C1425       C  0.62669198  0.06682737  0.92695316     0.06900
C1426       C  0.63967874  0.08904867  0.94980353    -0.27300
H1427       H  0.67727886  0.04291696  0.88713437     0.11700
H1428       H  0.72771225  0.06612486  0.89886014     0.12800
H1429       H  0.67015078  0.13303756  0.99043112     0.11900
H1430       H  0.72079123  0.15685124  0.00127953     0.10700
H1431       H  0.76623876  0.16158417  0.99142949     0.16500
H1432       H  0.77046978  0.10378626  0.92587715     0.12400
H1433       H  0.63252438  0.04015026  0.89425300     0.15300
H1434       H  0.62760863  0.09667942  0.96116443     0.15000
C1435       C  0.84625914  0.64973571  0.96481514     0.03100
C1436       C  0.86201798  0.67932782  0.96285988    -0.13000
C1437       C  0.84863860  0.69442934  0.96145429     0.00600
C1438       C  0.81908351  0.67955618  0.96158983    -0.11500
C1439       C  0.80296497  0.65007079  0.96353114     0.03100
C1440       C  0.81672757  0.63550205  0.96633880    -0.11000
H1441       H  0.88472273  0.69070191  0.96136143     0.08700
H1442       H  0.80859379  0.69085865  0.95833744     0.06200
H1443       H  0.80416639  0.61283764  0.96898278     0.06100
C1444       C  0.84766411  0.65226636  0.28757657     0.03100
C1445       C  0.86129378  0.68167610  0.28561550    -0.13000
C1446       C  0.84591599  0.69477683  0.28558534     0.00600
C1447       C  0.81632836  0.67789746  0.28574151    -0.11500
C1448       C  0.80219144  0.64832998  0.28721900     0.03100
C1449       C  0.81809211  0.63579175  0.28794437    -0.11000
H1450       H  0.88407781  0.69454867  0.28506452     0.08700
H1451       H  0.80435921  0.68782299  0.28705470     0.06200
H1452       H  0.80737567  0.61313203  0.29001269     0.06100
C1453       C  0.64288898  0.85612696  0.79012578     0.03100
C1454       C  0.67238468  0.87057835  0.78910466    -0.13000
C1455       C  0.68629170  0.85601375  0.78897094     0.00600
C1456       C  0.67018804  0.82636607  0.78828715    -0.11500
C1457       C  0.64055401  0.81142888  0.78895290     0.03100
C1458       C  0.62718367  0.82656262  0.78945130    -0.11000
H1459       H  0.68469014  0.89338214  0.78917816     0.08700
H1460       H  0.68069352  0.81494427  0.78955172     0.06200
H1461       H  0.60444459  0.81519958  0.79087792     0.06100
C1462       C  0.64051849  0.85300634  0.46685763     0.03100
C1463       C  0.62593040  0.82370213  0.47157217    -0.13000
C1464       C  0.63975734  0.80911477  0.46972895     0.00600
C1465       C  0.66914831  0.82451535  0.46563324    -0.11500
C1466       C  0.68446839  0.85399326  0.46199325     0.03100
C1467       C  0.66991175  0.86800492  0.46254876    -0.11000
H1468       H  0.60341071  0.81190999  0.47559804     0.08700
H1469       H  0.67989694  0.81340892  0.46319094     0.06200
H1470       H  0.68142751  0.89052158  0.45854673     0.06100
C1471       C  0.59712776  0.55466775  0.91694143     0.42500
N1472       N  0.56163034  0.54024392  0.88480573     0.01300
C1473       C  0.93071537  0.51679724  0.92078557    -0.06500
H1474       H  0.95482101  0.95552987  0.98858909     0.06800
C1475       C  0.95840629  0.91062605  0.87753770    -0.06900
Co1476     Co  0.51496687  0.54228753  0.91647142     0.74200
N1477       N  0.97834714  0.98852120  0.95310783    -0.26100
Co1478     Co  0.95250481  0.97693604  0.91129243     0.74100
C1479       C  0.94632759  0.89938881  0.90991184     0.42600
N1480       N  0.51304785  0.96761796  0.83507932     0.01000
N1481       N  0.95327443  0.94058675  0.90474531     0.01100
N1482       N  0.97180570  0.55903749  0.92506820    -0.46900
H1483       H  0.57483786  0.56226090  0.95945896     0.06800
N1484       N  0.50219625  0.51330422  0.95502498     0.01400
N1485       N  0.92759629  0.96624854  0.86885640     0.01100
C1486       C  0.89240149  0.95250788  0.83621137     0.42700
N1487       N  0.53681552  0.99238912  0.83771106    -0.25500
C1488       C  0.53002992  0.59544635  0.87556731    -0.06400
N1489       N  0.58748868  0.54543748  0.88615784    -0.46600
N1490       N  0.90181415  0.96129352  0.86723566    -0.46800
C1491       C  0.54178522  0.60652610  0.84294650     0.42500
N1492       N  0.97611405  0.53847994  0.91930780     0.01300
N1493       N  0.51130461  0.51761519  0.80070491    -0.25500
N1494       N  0.55363391  0.54566469  0.91283830    -0.26000
N1495       N  0.98739322  0.99294482  0.79860670     0.01000
H1496       H  0.53571724  0.55033731  0.76532507     0.06900
H1497       H  0.91503730  0.94533417  0.79372664     0.06900
N1498       N  0.95245810  0.51359993  0.91701130    -0.26100
N1499       N  0.96175247  0.93601076  0.87651434    -0.25700
N1500       N  0.53566460  0.56561849  0.84877542     0.01300
C1501       C  0.99729930  0.99531907  0.00329106     0.42700
C1502       C  0.55842009  0.98870229  0.83584253    -0.06900
N1503       N  0.93574709  0.96107503  0.84074390    -0.25700
H1504       H  0.96231682  0.90068112  0.85731457     0.06900
N1505       N  0.51397975  0.51829229  0.98461156    -0.46900
H1506       H  0.58049818  0.00519831  0.83668516     0.06900
C1507       C  0.99335351  0.51071144  0.75006435     0.42600
C1508       C  0.57478884  0.55508965  0.93472088    -0.06400
Co1509     Co  0.53676012  0.52926470  0.84262763     0.73800
N1510       N  0.51713695  0.94674115  0.83084466    -0.46600
C1511       C  0.94362944  0.54692476  0.92611890     0.42800
N1512       N  0.54498144  0.58697400  0.82788681    -0.46600
Co1513     Co  0.97428189  0.96408335  0.83726723     0.73900
C1514       C  0.91484708  0.95215009  0.81858501    -0.06900
C1515       C  0.97354809  0.97549804  0.98232923    -0.06500
N1516       N  0.52715171  0.57025527  0.87696613    -0.26000
N1517       N  0.94339780  0.91896455  0.92528409    -0.46800
H1518       H  0.90875313  0.49996333  0.92104484     0.06900
C1519       C  0.51673819  0.53051461  0.77137754    -0.06900
Cl1520     Cl  0.99461371  0.50315395  0.87690897    -0.49900
C1521       C  0.54525372  0.95843573  0.83129488     0.42600
H1522       H  0.52586001  0.60531009  0.89564646     0.06800
N1523       N  0.97616006  0.98786156  0.76869413    -0.46600
C1524       C  0.00179341  0.00300197  0.24993182     0.42500
N1525       N  0.98406212  0.99734910  0.29835280     0.01300
C1526       C  0.54646766  0.58167327  0.43646877    -0.06500
H1527       H  0.59649499  0.53276762  0.39353263     0.06800
C1528       C  0.50761173  0.93792968  0.41775559    -0.06900
Co1529     Co  0.52116224  0.54624810  0.34284044     0.74200
N1530       N  0.56181246  0.53524979  0.37580561    -0.26100
Co1531     Co  0.53416447  0.52262867  0.41548946     0.74100
C1532       C  0.53783379  0.95046787  0.42266875     0.42600
N1533       N  0.95608255  0.93632980  0.36759297     0.01000
N1534       N  0.52969543  0.98337681  0.41690205     0.01100
N1535       N  0.53689104  0.59590379  0.38884707    -0.46900
H1536       H  0.54181829  0.54508537  0.26514470     0.06800
N1537       N  0.55726900  0.54455230  0.34811291     0.01400
N1538       N  0.50585832  0.50966278  0.45444705     0.01100
C1539       C  0.98889554  0.50419028  0.50323206     0.42700
N1540       N  0.95081944  0.94489663  0.33977183    -0.25500
C1541       C  0.98144743  0.56891694  0.33635111    -0.06400
N1542       N  0.97889104  0.98600955  0.26852832    -0.46600
N1543       N  0.51163935  0.52088420  0.48434142    -0.46800
C1544       C  0.95126551  0.55619585  0.33146886     0.42500
N1545       N  0.53249487  0.57039522  0.38590447     0.01300
N1546       N  0.92756283  0.97185806  0.37648746    -0.25500
N1547       N  0.50889347  0.52113453  0.30046516    -0.26000
N1548       N  0.93192831  0.96281504  0.40452262     0.01000
H1549       H  0.89248285  0.97270971  0.35697445     0.06900
H1550       H  0.94826796  0.96248427  0.48832727     0.06900
N1551       N  0.53785268  0.56154371  0.41341034    -0.26100
N1552       N  0.50459357  0.95992692  0.41468717    -0.25700
N1553       N  0.95974084  0.52347570  0.33556237     0.01300
C1554       C  0.59778574  0.54995140  0.34147653     0.42700
C1555       C  0.93990665  0.92353592  0.31796685    -0.06900
N1556       N  0.98076085  0.98621304  0.45248550    -0.25700
H1557       H  0.99064343  0.91601846  0.41797198     0.06900
N1558       N  0.57846730  0.55393865  0.32704339    -0.46900
H1559       H  0.93221099  0.92378907  0.29358671     0.06900
C1560       C  0.89049913  0.95576052  0.40930627     0.42600
C1561       C  0.52174887  0.52638994  0.27115666    -0.06400
Co1562     Co  0.95531829  0.98426060  0.33707288     0.73800
N1563       N  0.94936487  0.90993852  0.36611653    -0.46600
C1564       C  0.54555993  0.60435119  0.42016213     0.42800
N1565       N  0.93919902  0.52802584  0.33100495    -0.46600
Co1566     Co  0.96806335  0.96095134  0.41019892     0.73900
C1567       C  0.96832106  0.98109165  0.48205711    -0.06900
C1568       C  0.58675627  0.53764902  0.37389140    -0.06500
N1569       N  0.98467826  0.54700965  0.33838329    -0.26000
N1570       N  0.55009114  0.97867796  0.42203607    -0.46800
H1571       H  0.55294978  0.58068062  0.46129508     0.06900
C1572       C  0.90221069  0.96857722  0.37733028    -0.06900
Cl1573     Cl  0.99467382  0.50347835  0.37638102    -0.49900
C1574       C  0.93914526  0.90038563  0.33555090     0.42600
H1575       H  0.99821470  0.59090202  0.33699381     0.06800
N1576       N  0.91000498  0.95250296  0.42467580    -0.46600
C1577       C  0.94373845  0.96503713  0.61106268    -0.17800
C1578       C  0.94437505  0.96600081  0.64553289    -0.20000
C1579       C  0.96746033  0.98830200  0.66224027     0.20700
C1580       C  0.99012304  0.50989622  0.64401845    -0.02900
C1581       C  0.98953497  0.50885969  0.60919090    -0.06000
C1582       C  0.96620706  0.98631668  0.59267370     0.20900
C1583       C  0.51234686  0.53024050  0.59094256     0.19100
C1584       C  0.53546891  0.55252281  0.60766982    -0.17500
C1585       C  0.53600030  0.55361031  0.64216878    -0.19700
C1586       C  0.51346491  0.53238605  0.66057360     0.20600
C1587       C  0.51404247  0.53304982  0.69520622    -0.32700
C1588       C  0.99173814  0.51132374  0.71357405     0.01300
C1589       C  0.96841647  0.98916951  0.69682906    -0.24000
C1590       C  0.96583222  0.98526117  0.55809234    -0.28600
C1591       C  0.98859176  0.50629955  0.53967584     0.06900
C1592       C  0.51172852  0.52882061  0.55633754    -0.27300
H1593       H  0.92569789  0.94754540  0.59877377     0.11700
H1594       H  0.92682332  0.94922519  0.65914215     0.12800
H1595       H  0.55319237  0.56909451  0.59406387     0.11900
H1596       H  0.55412972  0.57099450  0.65446825     0.11100
H1597       H  0.53216300  0.55021552  0.70772065     0.16500
H1598       H  0.95113221  0.97234260  0.71072882     0.12400
H1599       H  0.94792491  0.96779383  0.54564736     0.15300
H1600       H  0.52940787  0.54512532  0.54239322     0.15000
C1601       C  0.54579385  0.54368397  0.14190114    -0.17800
C1602       C  0.54522135  0.54245221  0.10742791    -0.20000
C1603       C  0.52336715  0.51885860  0.09088798     0.20700
C1604       C  0.00204507  0.99612808  0.10928685    -0.02900
C1605       C  0.00259060  0.99739753  0.14411725    -0.06000
C1606       C  0.52451578  0.02134892  0.16047037     0.20900
C1607       C  0.98098664  0.97490227  0.16252174     0.19100
C1608       C  0.95928539  0.95118889  0.14598048    -0.17500
C1609       C  0.95878293  0.94990163  0.11149397    -0.19700
C1610       C  0.97993177  0.97233778  0.09290017     0.20600
C1611       C  0.97900865  0.97166641  0.05825184    -0.32700
C1612       C  0.99976028  0.99460930  0.03971249     0.01300
C1613       C  0.52214700  0.51789114  0.05629667    -0.24000
C1614       C  0.52457151  0.02275129  0.19504795    -0.28600
C1615       C  0.00282975  0.00064261  0.21358348     0.06900
C1616       C  0.98124082  0.97668200  0.19708384    -0.27300
H1617       H  0.56277569  0.56224124  0.15404225     0.11700
H1618       H  0.56175755  0.56009593  0.09368080     0.12800
H1619       H  0.94255047  0.93370579  0.15972018     0.11900
H1620       H  0.94165590  0.93146104  0.09934529     0.11100
H1621       H  0.96174062  0.95354534  0.04585164     0.16500
H1622       H  0.53830520  0.53563677  0.04229083     0.12400
H1623       H  0.54127941  0.54135565  0.20736454     0.15300
H1624       H  0.96441519  0.95952330  0.21112841     0.15000
C1625       C  0.62698202  0.71621661  0.49321617    -0.17800
C1626       C  0.61344412  0.68736088  0.48654366    -0.20000
C1627       C  0.59047086  0.67414885  0.46469383     0.20700
C1628       C  0.58046891  0.69000958  0.45027851    -0.02900
C1629       C  0.59391031  0.71904767  0.45734652    -0.06000
C1630       C  0.61765914  0.73235683  0.47837084     0.20900
C1631       C  0.58416455  0.73492450  0.44243848     0.19100
C1632       C  0.56070669  0.72159668  0.42133379    -0.17500
C1633       C  0.54762403  0.69295110  0.41402728    -0.19700
C1634       C  0.55764882  0.67709844  0.42789765     0.20600
C1635       C  0.54586131  0.64883583  0.41894648    -0.32700
C1636       C  0.55621821  0.63312275  0.43248998     0.01300
C1637       C  0.57796809  0.64565215  0.45609446    -0.24000
C1638       C  0.63212132  0.76165233  0.48334936    -0.28600
C1639       C  0.62301148  0.77776849  0.46771341     0.06900
C1640       C  0.59861538  0.76402701  0.44788508    -0.27300
H1641       H  0.64505633  0.72600656  0.50957527     0.11700
H1642       H  0.62136253  0.67550336  0.49790542     0.12800
H1643       H  0.55287622  0.73348726  0.40984217     0.11900
H1644       H  0.52997343  0.68330989  0.39703873     0.11100
H1645       H  0.52891774  0.63915564  0.40098060     0.16500
H1646       H  0.58610931  0.63366465  0.46652607     0.12400
H1647       H  0.65070523  0.77198577  0.49891670     0.15300
H1648       H  0.59160159  0.77621048  0.43530356     0.15000
C1649       C  0.80878292  0.88723761  0.47699884    -0.17800
C1650       C  0.77989848  0.87256783  0.48378297    -0.20000
C1651       C  0.76211268  0.87845998  0.46619789     0.20700
C1652       C  0.77360621  0.89942576  0.44157282    -0.02900
C1653       C  0.80275915  0.91417632  0.43465073    -0.06000
C1654       C  0.82044084  0.90803717  0.45243553     0.20900
C1655       C  0.81414027  0.93487942  0.40974750     0.19100
C1656       C  0.79639478  0.94081535  0.39216228    -0.17500
C1657       C  0.76757498  0.92628113  0.39907370    -0.19700
C1658       C  0.75596772  0.90554878  0.42370270     0.20600
C1659       C  0.72703371  0.89077774  0.43063883    -0.32700
C1660       C  0.71531837  0.86983325  0.45519935     0.01300
C1661       C  0.73307494  0.86376156  0.47277673    -0.24000
C1662       C  0.84932649  0.92242917  0.44494687    -0.28600
C1663       C  0.86069333  0.94261623  0.41958456     0.06900
C1664       C  0.84296254  0.94897509  0.40247626    -0.27300
H1665       H  0.82199177  0.88218410  0.49086126     0.11700
H1666       H  0.77145178  0.85654448  0.50277691     0.12800
H1667       H  0.80478999  0.95662706  0.37292100     0.11900
H1668       H  0.75433738  0.93121840  0.38507558     0.11100
H1669       H  0.71352531  0.89526612  0.41648223     0.16500
H1670       H  0.72430920  0.84777820  0.49183339     0.12400
H1671       H  0.86277498  0.91733506  0.45821281     0.15300
H1672       H  0.85146773  0.96468903  0.38314429     0.15000
C1673       C  0.61882251  0.95059214  0.47095519    -0.17800
C1674       C  0.63287764  0.93681782  0.47794896    -0.20000
C1675       C  0.62142734  0.90881439  0.46799544     0.20700
C1676       C  0.59528595  0.89445194  0.45133361    -0.02900
C1677       C  0.58096080  0.90824995  0.44456256    -0.06000
C1678       C  0.59294195  0.93655506  0.45410870     0.20900
C1679       C  0.55479473  0.89378865  0.42793062     0.19100
C1680       C  0.54323632  0.86575824  0.41817391    -0.17500
C1681       C  0.55757008  0.85223121  0.42452329    -0.19700
C1682       C  0.58360903  0.86641683  0.44097351     0.20600
C1683       C  0.59834574  0.85314472  0.44663207    -0.32700
C1684       C  0.62458028  0.86721859  0.46300622     0.01300
C1685       C  0.63580487  0.89506300  0.47395005    -0.24000
C1686       C  0.57887415  0.95030619  0.44652661    -0.28600
C1687       C  0.55269981  0.93594050  0.43014474     0.06900
C1688       C  0.54072925  0.90763588  0.42113104    -0.27300
H1689       H  0.62826227  0.97228605  0.47862632     0.11700
H1690       H  0.65287883  0.94818831  0.49083009     0.12800
H1691       H  0.52319565  0.85435192  0.40537193     0.11900
H1692       H  0.54831421  0.83066089  0.41644408     0.11100
H1693       H  0.58964544  0.83201937  0.43725171     0.16500
H1694       H  0.65578554  0.90610914  0.48689956     0.12400
H1695       H  0.58813063  0.97209456  0.45372912     0.15300
H1696       H  0.52068112  0.89650306  0.40830964     0.15000
C1697       C  0.55238134  0.69890928  0.85547382    -0.17800
C1698       C  0.56632186  0.72757171  0.84799231    -0.20000
C1699       C  0.58704579  0.73925325  0.82344191     0.20700
C1700       C  0.59328639  0.72178160  0.80559425    -0.02900
C1701       C  0.57906183  0.69274576  0.81303335    -0.06000
C1702       C  0.55886664  0.68141717  0.83846368     0.20900
C1703       C  0.58558215  0.67524238  0.79568440     0.19100
C1704       C  0.60581429  0.68686755  0.77051805    -0.17500
C1705       C  0.62005727  0.71569901  0.76329534    -0.19700
C1706       C  0.61425080  0.73343953  0.78099763     0.20600
C1707       C  0.62937983  0.76265839  0.77508952    -0.32700
C1708       C  0.62359717  0.78027842  0.79330666     0.01300
C1709       C  0.60210329  0.76822850  0.81710490    -0.24000
C1710       C  0.54607556  0.65299955  0.84714007    -0.28600
C1711       C  0.55317205  0.63560049  0.83087337     0.06900
C1712       C  0.57239842  0.64668577  0.80452500    -0.27300
H1713       H  0.53683182  0.69050640  0.87495983     0.11700
H1714       H  0.56122488  0.74071239  0.86182209     0.12800
H1715       H  0.61101752  0.67375247  0.75681925     0.11900
H1716       H  0.63592165  0.72419524  0.74416670     0.11100
H1717       H  0.64574938  0.77172902  0.75653836     0.16500
H1718       H  0.59775661  0.78160374  0.83165879     0.12400
H1719       H  0.53096263  0.64461129  0.86707638     0.15300
H1720       H  0.57791232  0.63340274  0.79175731     0.15000
C1721       C  0.80919900  0.88661443  0.76834860    -0.17800
C1722       C  0.78020410  0.87261781  0.76223923    -0.20000
C1723       C  0.76340515  0.87950940  0.78015028     0.20700
C1724       C  0.77612021  0.90114794  0.80400754    -0.02900
C1725       C  0.80532469  0.91510005  0.81037619    -0.06000
C1726       C  0.82192095  0.90766099  0.79261690     0.20900
C1727       C  0.81776137  0.93601430  0.83507217     0.19100
C1728       C  0.80116119  0.94346105  0.85239046    -0.17500
C1729       C  0.77232572  0.92984323  0.84587728    -0.19700
C1730       C  0.75957384  0.90844906  0.82205353     0.20600
C1731       C  0.73047822  0.89389213  0.81646810    -0.32700
C1732       C  0.71744004  0.87190892  0.79319682     0.01300
C1733       C  0.73411247  0.86491987  0.77500313    -0.24000
C1734       C  0.85073919  0.92085077  0.80008199    -0.28600
C1735       C  0.86296105  0.94088684  0.82559634     0.06900
C1736       C  0.84640835  0.94861796  0.84261751    -0.27300
H1737       H  0.82160815  0.88065614  0.75442916     0.11700
H1738       H  0.77086590  0.85618348  0.74371607     0.12800
H1739       H  0.81041968  0.95959021  0.87128073     0.11900
H1740       H  0.75990600  0.93576640  0.85983996     0.11100
H1741       H  0.71780361  0.89916181  0.83100825     0.16500
H1742       H  0.72427779  0.84816972  0.75687543     0.12400
H1743       H  0.86332030  0.91466687  0.78695743     0.15300
H1744       H  0.85577231  0.96418978  0.86213757     0.15000
C1745       C  0.56260495  0.86785701  0.77101355    -0.17800
C1746       C  0.54856507  0.88163977  0.77764219    -0.20000
C1747       C  0.56049801  0.90490220  0.79898400     0.20700
C1748       C  0.58682397  0.91435031  0.81385908    -0.02900
C1749       C  0.60080603  0.90020666  0.80750117    -0.06000
C1750       C  0.58868875  0.87691596  0.78587228     0.20900
C1751       C  0.62686360  0.90935384  0.82284367     0.19100
C1752       C  0.63876652  0.93255770  0.84428040    -0.17500
C1753       C  0.62513556  0.94683858  0.85018928    -0.19700
C1754       C  0.59922547  0.93797403  0.83502391     0.20600
C1755       C  0.58555782  0.95236944  0.84051728    -0.32700
C1756       C  0.55932006  0.94298378  0.82584920     0.01300
C1757       C  0.54670709  0.91902912  0.80550838    -0.24000
C1758       C  0.60277090  0.86300674  0.77964014    -0.28600
C1759       C  0.62867187  0.87181665  0.79509905     0.06900
C1760       C  0.64049037  0.89504100  0.81671394    -0.27300
H1761       H  0.55298596  0.85001042  0.75436772     0.11700
H1762       H  0.52841335  0.87417699  0.76593952     0.12800
H1763       H  0.65872406  0.93977026  0.85634566     0.11900
H1764       H  0.63486391  0.96482688  0.86664585     0.11100
H1765       H  0.59516435  0.97068605  0.85649430     0.16500
H1766       H  0.52650058  0.91185176  0.79407819     0.12400
H1767       H  0.59355648  0.84531330  0.76276515     0.15300
H1768       H  0.66007235  0.90166905  0.82940360     0.15000
C1769       C  0.87463039  0.55909078  0.27647910    -0.17800
C1770       C  0.86066628  0.57289886  0.26947644    -0.20000
C1771       C  0.86979149  0.59918949  0.28366158     0.20700
C1772       C  0.89340691  0.61182882  0.30487333    -0.02900
C1773       C  0.90772044  0.59805260  0.31163081    -0.06000
C1774       C  0.89812150  0.57145732  0.29754192     0.20900
C1775       C  0.93155944  0.61084484  0.33253342     0.19100
C1776       C  0.94056638  0.63704644  0.34689643    -0.17500
C1777       C  0.92613568  0.65050616  0.34056471    -0.19700
C1778       C  0.90261108  0.63812349  0.31951420     0.20600
C1779       C  0.88792278  0.65139876  0.31321569    -0.32700
C1780       C  0.86420385  0.63888626  0.29224034     0.01300
C1781       C  0.85551160  0.61287789  0.27729370    -0.24000
C1782       C  0.91221840  0.55773456  0.30469201    -0.28600
C1783       C  0.93624980  0.57059142  0.32496562     0.06900
C1784       C  0.94591532  0.59718542  0.33869981    -0.27300
H1785       H  0.86706719  0.53873146  0.26537560     0.11700
H1786       H  0.84257333  0.56289905  0.25314663     0.12800
H1787       H  0.95872625  0.64709362  0.36312761     0.11900
H1788       H  0.93341911  0.67065328  0.35209499     0.11100
H1789       H  0.89454040  0.67114407  0.32540988     0.16500
H1790       H  0.83749450  0.60318290  0.26083163     0.12400
H1791       H  0.90484067  0.53727850  0.29393441     0.15300
H1792       H  0.96431942  0.60701112  0.35458009     0.15000
C1793       C  0.85808925  0.78768161  0.26203923    -0.17800
C1794       C  0.87128878  0.81652447  0.26888375    -0.20000
C1795       C  0.89266358  0.82945015  0.29284423     0.20700
C1796       C  0.90090453  0.81308883  0.30984456    -0.02900
C1797       C  0.88781250  0.78409544  0.30269361    -0.06000
C1798       C  0.86610660  0.77121618  0.27888644     0.20900
C1799       C  0.89621252  0.76793886  0.31978291     0.19100
C1800       C  0.91752708  0.78073442  0.34370538    -0.17500
C1801       C  0.93024850  0.80929355  0.35101282    -0.19700
C1802       C  0.92202333  0.82559495  0.33433970     0.20600
C1803       C  0.93441403  0.85412154  0.34205178    -0.32700
C1804       C  0.92644463  0.87066387  0.32534199     0.01300
C1805       C  0.90571776  0.85828536  0.30046557    -0.24000
C1806       C  0.85263828  0.74209884  0.27276650    -0.28600
C1807       C  0.86087573  0.72586036  0.28997325     0.06900
C1808       C  0.88284966  0.73913290  0.31321003    -0.27300
H1809       H  0.84150825  0.77822605  0.24365280     0.11700
H1810       H  0.86460865  0.82868147  0.25560655     0.12800
H1811       H  0.92418257  0.76857096  0.35702628     0.11900
H1812       H  0.94647682  0.81862236  0.36982798     0.11100
H1813       H  0.95037548  0.86352057  0.36119348     0.16500
H1814       H  0.89922804  0.87082962  0.28772372     0.12400
H1815       H  0.83577531  0.73207135  0.25475397     0.15300
H1816       H  0.88897793  0.72678591  0.32711890     0.15000
C1817       C  0.68936106  0.55824531  0.35200221    -0.17800
C1818       C  0.71803131  0.57212786  0.34454717    -0.20000
C1819       C  0.72989750  0.59344058  0.32060831     0.20700
C1820       C  0.71253041  0.60018653  0.30322108    -0.02900
C1821       C  0.68354291  0.58612501  0.31071989    -0.06000
C1822       C  0.67206584  0.56543927  0.33565096     0.20900
C1823       C  0.66626505  0.59338135  0.29401111     0.19100
C1824       C  0.67798351  0.61401045  0.26925013    -0.17500
C1825       C  0.70672042  0.62798844  0.26187495    -0.19700
C1826       C  0.72426728  0.62158356  0.27910202     0.20600
C1827       C  0.75341531  0.63668814  0.27327478    -0.32700
C1828       C  0.77103962  0.63073740  0.29129817     0.01300
C1829       C  0.75894524  0.60868477  0.31451211    -0.24000
C1830       C  0.64373946  0.55294928  0.34455713    -0.28600
C1831       C  0.62664197  0.56090101  0.32904599     0.06900
C1832       C  0.63785162  0.58056363  0.30311645    -0.27300
H1833       H  0.68082807  0.54226435  0.37105143     0.11700
H1834       H  0.73103995  0.56656303  0.35797316     0.12800
H1835       H  0.66502900  0.61974987  0.25602645     0.11900
H1836       H  0.71532731  0.64420579  0.24310578     0.11100
H1837       H  0.76247024  0.65335277  0.25503364     0.16500
H1838       H  0.77228894  0.60410050  0.32886746     0.12400
H1839       H  0.63522216  0.53746439  0.36414306     0.15300
H1840       H  0.62479882  0.58671320  0.29091428     0.15000
C1841       C  0.94364802  0.62812266  0.97247122    -0.17800
C1842       C  0.92972529  0.64206804  0.97890449    -0.20000
C1843       C  0.90175320  0.63041929  0.96860033     0.20700
C1844       C  0.88757131  0.60425499  0.95211996    -0.02900
C1845       C  0.90143194  0.58996441  0.94612541    -0.06000
C1846       C  0.92972114  0.60211980  0.95599884     0.20900
C1847       C  0.88705740  0.56366673  0.92989277     0.19100
C1848       C  0.85909431  0.55194609  0.91970317    -0.17500
C1849       C  0.84556763  0.56635595  0.92508349    -0.19700
C1850       C  0.85966382  0.59252855  0.94113931     0.20600
C1851       C  0.84644235  0.60737193  0.94572926    -0.32700
C1852       C  0.86026633  0.63355728  0.96212130     0.01300
C1853       C  0.88786957  0.64465233  0.97401183    -0.24000
C1854       C  0.94355442  0.58809029  0.94907439    -0.28600
C1855       C  0.92922450  0.56181839  0.93308488     0.06900
C1856       C  0.90095315  0.54965442  0.92381576    -0.27300
H1857       H  0.96533400  0.63770624  0.98032900     0.11700
H1858       H  0.94096463  0.66215344  0.99156473     0.12800
H1859       H  0.84778478  0.53177487  0.90722141     0.11900
H1860       H  0.82407559  0.55705116  0.91659755     0.11100
H1861       H  0.82559816  0.59874326  0.93544946     0.16500
H1862       H  0.89873441  0.66447695  0.98720732     0.12400
H1863       H  0.96533616  0.59743373  0.95644568     0.15300
H1864       H  0.88988390  0.52951730  0.91124176     0.15000
C1865       C  0.92565797  0.77995813  0.90728468    -0.17800
C1866       C  0.93935720  0.80866890  0.90017235    -0.20000
C1867       C  0.93068227  0.82523685  0.91511466     0.20700
C1868       C  0.90840966  0.81294521  0.93803435    -0.02900
C1869       C  0.89453077  0.78392664  0.94515805    -0.06000
C1870       C  0.90305050  0.76734549  0.92944177     0.20900
C1871       C  0.87177088  0.77141603  0.96741047     0.19100
C1872       C  0.86347740  0.78813828  0.98284789    -0.17500
C1873       C  0.87728732  0.81693420  0.97585151    -0.19700
C1874       C  0.89961842  0.82950142  0.95327639     0.20600
C1875       C  0.91286800  0.85813048  0.94504182    -0.32700
C1876       C  0.93440621  0.87019080  0.92133795     0.01300
C1877       C  0.94347854  0.85372134  0.90692584    -0.24000
C1878       C  0.88842080  0.73833090  0.93551196    -0.28600
C1879       C  0.86530931  0.72552392  0.95712206     0.06900
C1880       C  0.85738568  0.74233891  0.97333332    -0.27300
H1881       H  0.93251319  0.76753196  0.89510794     0.11700
H1882       H  0.95650856  0.81784478  0.88262607     0.12800
H1883       H  0.84607669  0.77887538  0.00005085     0.11900
H1884       H  0.87025963  0.82930677  0.98778844     0.11100
H1885       H  0.90574793  0.87073678  0.95616642     0.16500
H1886       H  0.96030242  0.86297841  0.88894807     0.12400
H1887       H  0.89444656  0.72557892  0.92245408     0.15300
H1888       H  0.83983355  0.73272182  0.99034227     0.15000
C1889       C  0.68708914  0.56047089  0.90420364    -0.17800
C1890       C  0.71586862  0.57372096  0.91088979    -0.20000
C1891       C  0.72927520  0.59677014  0.93251566     0.20700
C1892       C  0.71347806  0.60632063  0.94796377    -0.02900
C1893       C  0.68436300  0.59276620  0.94147025    -0.06000
C1894       C  0.67121339  0.56994656  0.91918983     0.20900
C1895       C  0.66852815  0.60233376  0.95684870     0.19100
C1896       C  0.68196305  0.62536134  0.97850887    -0.17500
C1897       C  0.71087501  0.63895815  0.98470288    -0.19700
C1898       C  0.72683210  0.62967417  0.96948451     0.20600
C1899       C  0.75594383  0.64355232  0.97505383    -0.32700
C1900       C  0.77188585  0.63433288  0.95947388     0.01300
C1901       C  0.75828880  0.61074401  0.93846484    -0.24000
C1902       C  0.64253582  0.55731461  0.91186893    -0.28600
C1903       C  0.62669197  0.56682737  0.92695315     0.06900
C1904       C  0.63967872  0.58904867  0.94980352    -0.27300
H1905       H  0.67727887  0.54291698  0.88713438     0.11700
H1906       H  0.72771224  0.56612487  0.89886017     0.12800
H1907       H  0.67015074  0.63303756  0.99043112     0.11900
H1908       H  0.72079120  0.65685126  0.00127953     0.10700
H1909       H  0.76623877  0.66158420  0.99142948     0.16500
H1910       H  0.77046976  0.60378619  0.92587725     0.12400
H1911       H  0.63252438  0.54015025  0.89425301     0.15300
H1912       H  0.62760861  0.59667941  0.96116442     0.15000
loop_ 
_geom_bond_atom_site_label_1 
_geom_bond_atom_site_label_2 
_geom_bond_distance 
_geom_bond_site_symmetry_2 
_ccdc_geom_bond_type 
C1            C2   1.408       .  A
C1            C6   1.407       .  A
C1          C418   1.495       .  S
C2            C3   1.407       .  A
C2            H7   1.081       .  S
C3            C4   1.405       .  A
C3          C445   1.488       .  S
C4            C5   1.403       .  A
C4            H8   1.083       .  S
C5            C6   1.403       .  A
C5          C466   1.486       .  S
C6            H9   1.082       .  S
C10          C11   1.405       .  A
C10          C15   1.405       .  A
C10         C346   1.490       .  S
C11          C12   1.407       .  A
C11          H16   1.083       .  S
C12          C13   1.407       .  A
C12         C373   1.490       .  S
C13          C14   1.409       .  A
C13          H17   1.083       .  S
C14          C15   1.406       .  A
C14         C394   1.490       .  S
C15          H18   1.083       .  S
C19          C20   1.404       .  A
C19          C24   1.405       .  A
C19         C325   1.491       .  S
C20          C21   1.405       .  A
C20          H25   1.083       .  S
C21          C22   1.409       .  A
C21         C298   1.490       .  S
C22          C23   1.409       .  A
C22          H26   1.083       .  S
C23          C24   1.408       .  A
C23         C274   1.490       .  S
C24          H27   1.083       .  S
C28          C29   1.407       .  A
C28          C33   1.408       .  A
C28         C250   1.496       .  S
C29          C30   1.404       .  A
C29          H34   1.083       .  S
C30          C31   1.407       .  A
C30         C205   1.491       .  S
C31          C32   1.408       .  A
C31          H35   1.083       .  S
C32          C33   1.410       .  A
C32         C226   1.493       .  S
C33          H36   1.082       .  S
C37          C74   1.463       .  S
C37         C469   1.475       .  S
C37          N55   1.348       .  A
N38          N55   1.323       .  A
N38          N60   1.319       .  A
N38         Co75   2.080       .  S
C39          C77   1.459       .  S
C39          H84   1.081   1_545  S
C39          N64   1.339       .  A
H40          C81   1.081       .  S
C41          C45   1.459       .  S
C41          H70   1.081       .  S
C41          N65   1.338       .  A
Co42         N60   2.087       .  S
Co42         N50   2.090       .  S
Co42         N82   2.088       .  S
Co42       N1014   2.084   1_455  S
Co42      Cl1042   2.455   1_455  S
N43          C81   1.343       .  A
N43        N1484   1.321       .  A
N43         Co44   2.094       .  S
Co44         N47   2.087       .  S
Co44         N51   2.091       .  S
Co44        N542   2.079       .  S
Co44       Cl564   2.451       .  S
C45         C442   1.478       .  S
C45          N83   1.352       .  A
N46          N53   1.320       .  A
N46          N76   1.325       .  A
N46       Co1035   2.085   1_455  S
N47          N65   1.320       .  A
N47          N83   1.326       .  A
N48          C77   1.350       .  A
N48          N58   1.325       .  A
H49          C74   1.082       .  S
N50          N71   1.325       .  A
N50        N1477   1.321   1_445  A
N51          N69   1.320       .  A
N51          N56   1.324       .  A
C52          C80   1.464       .  S
C52         C301   1.481       .  S
C52          N56   1.351       .  A
N53          C68   1.342       .  A
N53        Co553   2.087       .  S
C54          C57   1.462       .  S
C54          H88   1.081       .  S
C54          N82   1.339       .  A
C57         C277   1.485       .  S
C57          N78   1.353       .  A
N58          N64   1.320       .  A
N58        Co998   2.084       .  S
N59          C85   1.341       .  A
N59        N1495   1.320   1_445  A
N59         Co75   2.086       .  S
N60          C74   1.343       .  A
N61          N89   1.325       .  A
N61        N1493   1.320       .  A
N61         Co79   2.088       .  S
H62          C85   1.081       .  S
H63          C80   1.081       .  S
N64        Co522   2.079   1_545  S
N65         Co79   2.082       .  S
N66          N78   1.327       .  A
N66          N82   1.321       .  A
N66         Co75   2.095       .  S
C67          C81   1.466   1_554  S
C67         C178   1.486       .  S
C67        N1505   1.352   1_554  A
C68          C87   1.460       .  S
C68          H72   1.081       .  S
N69          C80   1.343       .  A
N69         Co79   2.089       .  S
N71        C1501   1.352   1_446  A
C73         C154   1.484       .  S
C73        C1041   1.464       .  S
C73         N567   1.352   1_545  A
Co75        N531   2.087   1_545  S
Co75      Cl1042   2.449   1_455  S
N76          C87   1.349       .  A
C77         C421   1.474       .  S
Co79       N1002   2.085       .  S
Co79       Cl564   2.455       .  S
C85        C1029   1.464   1_455  S
Cl86       Co998   2.455       .  S
Cl86       Co522   2.451   1_545  S
Cl86      Co1031   2.449       .  S
Cl86       Co557   2.455   1_545  S
C87         C322   1.474       .  S
N89         C551   1.352       .  A
C90         C181   1.485       .  S
C90        C1561   1.465       .  S
C90         N108   1.352       .  A
N91         N108   1.325       .  A
N91        N1547   1.321       .  A
N91        Co128   2.089       .  S
C92         C130   1.462       .  S
C92         H137   1.082       .  S
C92         N117   1.343       .  A
H93         C134   1.081       .  S
C94          C98   1.464       .  S
C94        H1079   1.081   1_455  S
C94         N118   1.343       .  A
Co95        N113   2.093       .  S
Co95        N103   2.096       .  S
Co95        N111   2.091       .  S
Co95       N1091   2.085   1_455  S
Co95      Cl1095   2.454   1_455  S
N96         C134   1.339       .  A
N96         N103   1.320       .  A
N96         Co97   2.085       .  S
Co97        N117   2.088       .  S
Co97        N104   2.082       .  S
Co97        N578   2.086   1_545  S
Co97      Cl1095   2.455   1_455  S
C98         C253   1.481       .  S
C98         N136   1.350       .  A
N99         N106   1.320       .  A
N99         N129   1.323       .  A
N99        Co132   2.087       .  S
N100        N118   1.321       .  A
N100        N136   1.325       .  A
N100       Co575   2.086       .  S
N101        C130   1.351       .  A
N101        N111   1.325       .  A
H102        C127   1.081       .  S
N103        N124   1.328       .  A
N104        N109   1.324       .  A
N104       N1556   1.320   1_445  A
C105        C157   1.484       .  S
C105        C611   1.466   1_545  S
C105       N1065   1.350       .  A
N106        C121   1.346       .  A
N106       Co128   2.094       .  S
C107        C110   1.460       .  S
C107        H141   1.081       .  S
C107        N135   1.342       .  A
N109       C1061   1.350   1_455  A
C110        C349   1.474       .  S
C110        N131   1.349       .  A
N111        N117   1.320       .  A
N112        C138   1.338       .  A
N112        N114   1.320       .  A
N112       Co128   2.081       .  S
N113        C127   1.342       .  A
N113       N1525   1.321   1_445  A
N114        N142   1.329       .  A
N114       Co132   2.104       .  S
H115        C138   1.081       .  S
H116        C133   1.081       .  S
N118      Co1088   2.095   1_455  S
N119        N131   1.324       .  A
N119        N135   1.320       .  A
N119       Co606   2.085   1_545  S
C120        C134   1.461       .  S
C120        C397   1.484       .  S
C120        N124   1.354       .  A
C121        C140   1.465       .  S
C121        H125   1.081       .  S
N122        C133   1.342       .  A
N122       N1538   1.320       .  A
N122       Co132   2.093       .  S
H123       C1050   1.081       .  S
C126        C138   1.460       .  S
C126        C229   1.486       .  S
C126        N142   1.356       .  A
C127       C1524   1.465       .  S
Co128       N597   2.085       .  S
Co128      Cl617   2.455       .  S
N129        C140   1.350       .  A
C130        C202   1.480       .  S
Co132      N1074   2.095       .  S
Co132      Cl617   2.452       .  S
C133        C583   1.466       .  S
N135      Co1051   2.085       .  S
Cl139     Co1051   2.454       .  S
Cl139     Co1053   2.455       .  S
Cl139      Co606   2.455   1_545  S
Cl139      Co610   2.452   1_545  S
C140        C370   1.483       .  S
C143        C144   1.399       .  A
C143        C148   1.403       .  A
C143        H159   1.084       .  S
C144        C145   1.403       .  A
C144        H160   1.083       .  S
C145        C155   1.404       .  A
C145        C624   1.411       .  A
C146        C147   1.414       .  A
C146        C623   1.411   1_545  A
C146       C1108   1.411       .  A
C147       C1105   1.411       .  A
C147        C626   1.411   1_545  A
C148        C156   1.404       .  A
C148        C625   1.411       .  A
C149        C158   1.405       .  A
C149        C150   1.404       .  A
C149       C1103   1.411   1_455  A
C150        C151   1.400       .  A
C150        H161   1.084       .  S
C151        C152   1.404       .  A
C151        H162   1.084       .  S
C152        C153   1.405       .  A
C152       C1102   1.411   1_455  A
C153       C1110   1.408   1_455  A
C153        H163   1.083       .  S
C154       C1109   1.408       .  A
C154        C633   1.407   1_545  A
C155        C632   1.407       .  A
C155        H164   1.084       .  S
C156        C635   1.407       .  A
C156        H165   1.083       .  S
C157        C634   1.407   1_545  A
C157       C1114   1.409       .  A
C158       C1113   1.409   1_455  A
C158        H166   1.084       .  S
C167        C168   1.400       .  A
C167        C650   1.404       .  A
C167        H183   1.084       .  S
C168        C169   1.404       .  A
C168        H184   1.084       .  S
C169        C179   1.404       .  A
C169       C1604   1.411   1_545  A
C170        C176   1.412       .  A
C170        C171   1.414       .  A
C170       C1603   1.411       .  A
C171        C173   1.411       .  A
C171       C1128   1.411       .  A
C172        C180   1.405       .  A
C172        C645   1.404       .  A
C172       C1127   1.411       .  A
C173        C182   1.405       .  A
C173        C174   1.404       .  A
C174        C175   1.400       .  A
C174        H185   1.084       .  S
C175        C176   1.404       .  A
C175        H186   1.084       .  S
C176        C177   1.406       .  A
C177        C178   1.408       .  A
C177        H187   1.083       .  S
C178       C1613   1.408       .  A
C179       C1612   1.408   1_445  A
C179        H188   1.084       .  S
C180       C1137   1.408       .  A
C180        H667   1.083       .  S
C181        C182   1.408       .  A
C181       C1136   1.408       .  A
C182        H190   1.084       .  S
H189        C658   1.083       .  S
C191        C192   1.401       .  A
C191        C196   1.404       .  A
C191        H207   1.083       .  S
C192        C193   1.405       .  A
C192        H208   1.083       .  S
C193        C203   1.407       .  A
C193        C194   1.411       .  A
C194        C200   1.412       .  A
C194        C195   1.414       .  A
C195        C197   1.410       .  A
C195        C196   1.412       .  A
C196        C204   1.408       .  A
C197        C206   1.401       .  A
C197        C198   1.404       .  A
C198        C199   1.398       .  A
C198        H209   1.084       .  S
C199        C200   1.403       .  A
C199        H210   1.084       .  S
C200        C201   1.404       .  A
C201        C202   1.405       .  A
C201        H211   1.085       .  S
C202        C203   1.407       .  A
C203        H212   1.084       .  S
C204        C205   1.409       .  A
C204        H213   1.084       .  S
C205        C206   1.409       .  A
C206        H214   1.084       .  S
C215        C216   1.401       .  A
C215        C220   1.404       .  A
C215        H231   1.083       .  S
C216        C217   1.404       .  A
C216        H232   1.083       .  S
C217        C227   1.407       .  A
C217        C218   1.411       .  A
C218        C224   1.411       .  A
C218        C219   1.415       .  A
C219        C221   1.410       .  A
C219        C220   1.412       .  A
C220        C228   1.408       .  A
C221        C230   1.404       .  A
C221        C222   1.404       .  A
C222        C223   1.399       .  A
C222        H233   1.084       .  S
C223        C224   1.404       .  A
C223        H234   1.084       .  S
C224        C225   1.405       .  A
C225        C226   1.409       .  A
C225        H235   1.084       .  S
C226        C227   1.409       .  A
C227        H236   1.084       .  S
C228        C229   1.407       .  A
C228        H237   1.084       .  S
C229        C230   1.409       .  A
C230        H238   1.083       .  S
C239        C240   1.402       .  A
C239        C244   1.405       .  A
C239        H255   1.084       .  S
C240        C241   1.405       .  A
C240        H256   1.083       .  S
C241        C251   1.408       .  A
C241        C242   1.412       .  A
C242        C248   1.409       .  A
C242        C243   1.414       .  A
C243        C245   1.413       .  A
C243        C244   1.411       .  A
C244        C252   1.406       .  A
C245        C254   1.404       .  A
C245        C246   1.403       .  A
C246        C247   1.398       .  A
C246        H257   1.084       .  S
C247        C248   1.404       .  A
C247        H258   1.084       .  S
C248        C249   1.401       .  A
C249        C250   1.410       .  A
C249        H259   1.083       .  S
C250        C251   1.411       .  A
C251        H260   1.084       .  S
C252        C253   1.408       .  A
C252        H261   1.084       .  S
C253        C254   1.405       .  A
C254        H262   1.084       .  S
C263        C264   1.397       .  A
C263        C268   1.403       .  A
C263        H279   1.084       .  S
C264        C265   1.403       .  A
C264        H280   1.084       .  S
C265        C275   1.401       .  A
C265        C266   1.410       .  A
C266        C272   1.412       .  A
C266        C267   1.414       .  A
C267        C269   1.412       .  A
C267        C268   1.411       .  A
C268        C276   1.402       .  A
C269        C278   1.408       .  A
C269        C270   1.405       .  A
C270        C271   1.402       .  A
C270        H281   1.083       .  S
C271        C272   1.405       .  A
C271        H282   1.083       .  S
C272        C273   1.409       .  A
C273        C274   1.409       .  A
C273        H283   1.084       .  S
C274        C275   1.408       .  A
C275        H284   1.084       .  S
C276        C277   1.406       .  A
C276        H285   1.083       .  S
C277        C278   1.409       .  A
C278        H286   1.084       .  S
C287        C288   1.401       .  A
C287        C292   1.405       .  A
C287        H303   1.083       .  S
C288        C289   1.404       .  A
C288        H304   1.083       .  S
C289        C299   1.408       .  A
C289        C290   1.412       .  A
C290        C296   1.410       .  A
C290        C291   1.414       .  A
C291        C293   1.412       .  A
C291        C292   1.412       .  A
C292        C300   1.407       .  A
C293        C302   1.403       .  A
C293        C294   1.403       .  A
C294        C295   1.398       .  A
C294        H305   1.084       .  S
C295        C296   1.404       .  A
C295        H306   1.084       .  S
C296        C297   1.401       .  A
C297        C298   1.409       .  A
C297        H307   1.084       .  S
C298        C299   1.408       .  A
C299        H308   1.084       .  S
C300        C301   1.408       .  A
C300        H309   1.083       .  S
C301        C302   1.405       .  A
C302        H310   1.085       .  S
C311        C312   1.400       .  A
C311        C316   1.404       .  A
C311        H327   1.083       .  S
C312        C313   1.404       .  A
C312        H328   1.084       .  S
C313        C323   1.404       .  A
C313        C314   1.411       .  A
C314        C320   1.413       .  A
C314        C315   1.412       .  A
C315        C317   1.410       .  A
C315        C316   1.412       .  A
C316        C324   1.405       .  A
C317        C326   1.402       .  A
C317        C318   1.404       .  A
C318        C319   1.399       .  A
C318        H329   1.083       .  S
C319        C320   1.403       .  A
C319        H330   1.084       .  S
C320        C321   1.403       .  A
C321        C322   1.404       .  A
C321        H331   1.085       .  S
C322        C323   1.405       .  A
C323        H332   1.084       .  S
C324        C325   1.408       .  A
C324        H333   1.084       .  S
C325        C326   1.409       .  A
C326        H334   1.084       .  S
C335        C336   1.399       .  A
C335        C340   1.403       .  A
C335        H351   1.083       .  S
C336        C337   1.403       .  A
C336        H352   1.084       .  S
C337        C347   1.403       .  A
C337        C338   1.412       .  A
C338        C344   1.410       .  A
C338        C339   1.412       .  A
C339        C341   1.412       .  A
C339        C340   1.411       .  A
C340        C348   1.402       .  A
C341        C350   1.404       .  A
C341        C342   1.403       .  A
C342        C343   1.400       .  A
C342        H353   1.084       .  S
C343        C344   1.404       .  A
C343        H354   1.084       .  S
C344        C345   1.403       .  A
C345        C346   1.410       .  A
C345        H355   1.084       .  S
C346        C347   1.408       .  A
C347        H356   1.084       .  S
C348        C349   1.405       .  A
C348        H357   1.084       .  S
C349        C350   1.405       .  A
C350        H358   1.084       .  S
C359        C360   1.404       .  A
C359        C364   1.405       .  A
C359        H375   1.083       .  S
C360        C361   1.406       .  A
C360        H376   1.083       .  S
C361        C371   1.411       .  A
C361        C362   1.412       .  A
C362        C368   1.411       .  A
C362        C363   1.414       .  A
C363        C365   1.410       .  A
C363        C364   1.412       .  A
C364        C372   1.410       .  A
C365        C374   1.399       .  A
C365        C366   1.402       .  A
C366        C367   1.396       .  A
C366        H377   1.084       .  S
C367        C368   1.402       .  A
C367        H378   1.084       .  S
C368        C369   1.400       .  A
C369        C370   1.405       .  A
C369        H379   1.085       .  S
C370        C371   1.409       .  A
C371        H380   1.084       .  S
C372        C373   1.410       .  A
C372        H381   1.084       .  S
C373        C374   1.407       .  A
C374        H382   1.084       .  S
C383        C384   1.399       .  A
C383        C388   1.404       .  A
C383        H399   1.084       .  S
C384        C385   1.404       .  A
C384        H400   1.084       .  S
C385        C395   1.403       .  A
C385        C386   1.411       .  A
C386        C392   1.411       .  A
C386        C387   1.414       .  A
C387        C389   1.412       .  A
C387        C388   1.411       .  A
C388        C396   1.403       .  A
C389        C398   1.407       .  A
C389        C390   1.404       .  A
C390        C391   1.401       .  A
C390        H401   1.083       .  S
C391        C392   1.404       .  A
C391        H402   1.084       .  S
C392        C393   1.406       .  A
C393        C394   1.408       .  A
C393        H403   1.084       .  S
C394        C395   1.409       .  A
C395        H404   1.084       .  S
C396        C397   1.407       .  A
C396        H405   1.083       .  S
C397        C398   1.408       .  A
C398        H406   1.084       .  S
C407        C408   1.400       .  A
C407        C412   1.404       .  A
C407        H423   1.084       .  S
C408        C409   1.404       .  A
C408        H424   1.083       .  S
C409        C419   1.405       .  A
C409        C410   1.411       .  A
C410        C416   1.409       .  A
C410        C411   1.411       .  A
C411        C413   1.412       .  A
C411        C412   1.411       .  A
C412        C420   1.404       .  A
C413        C422   1.400       .  A
C413        C414   1.402       .  A
C414        C415   1.396       .  A
C414        H425   1.084       .  S
C415        C416   1.403       .  A
C415        H426   1.084       .  S
C416        C417   1.398       .  A
C417        C418   1.410       .  A
C417        H427   1.083       .  S
C418        C419   1.411       .  A
C419        H428   1.083       .  S
C420        C421   1.406       .  A
C420        H429   1.084       .  S
C421        C422   1.404       .  A
C422        H430   1.084       .  S
C431        C432   1.397       .  A
C431        C436   1.403       .  A
C431        H447   1.084       .  S
C432        C433   1.403       .  A
C432        H448   1.084       .  S
C433        C443   1.400       .  A
C433        C434   1.411       .  A
C434        C440   1.412       .  A
C434        C435   1.412       .  A
C435        C437   1.411       .  A
C435        C436   1.411       .  A
C436        C444   1.401       .  A
C437        C446   1.404       .  A
C437        C438   1.404       .  A
C438        C439   1.400       .  A
C438        H449   1.084   1_556  S
C439        C440   1.404       .  A
C439        H450   1.083       .  S
C440        C441   1.406       .  A
C441        C442   1.407       .  A
C441        H451   1.084       .  S
C442        C443   1.405       .  A
C443        H452   1.084       .  S
C444        C445   1.407       .  A
C444        H453   1.084       .  S
C445        C446   1.409       .  A
C446        H454   1.084       .  S
C455        C456   1.398       .  A
C455        C460   1.403       .  A
C455        H471   1.084       .  S
C456        C457   1.404       .  A
C456        H472   1.084       .  S
C457        C467   1.401       .  A
C457        C458   1.411       .  A
C458        C464   1.412       .  A
C458        C459   1.412       .  A
C459        C461   1.412       .  A
C459        C460   1.412       .  A
C460        C468   1.402       .  A
C461        C470   1.404       .  A
C461        C462   1.404       .  A
C462        C463   1.400       .  A
C462        H473   1.083       .  S
C463        C464   1.403       .  A
C463        H474   1.084   1_556  S
C464        C465   1.404       .  A
C465        C466   1.407       .  A
C465        H475   1.084       .  S
C466        C467   1.408       .  A
C467        H476   1.084       .  S
C468        C469   1.405       .  A
C468        H477   1.085       .  S
C469        C470   1.405       .  A
C470        H478   1.084       .  S
C479        C480   1.408       .  A
C479        C484   1.407       .  A
C479        C896   1.495       .  S
C480        C481   1.407       .  A
C480        H485   1.081       .  S
C481        C482   1.405       .  A
C481        C923   1.488       .  S
C482        C483   1.403       .  A
C482        H486   1.083       .  S
C483        C484   1.403       .  A
C483        C944   1.486       .  S
C484        H487   1.082       .  S
C488        C489   1.405       .  A
C488        C493   1.405       .  A
C488        C824   1.490       .  S
C489        C490   1.407       .  A
C489        H494   1.083       .  S
C490        C491   1.407       .  A
C490        C851   1.490       .  S
C491        C492   1.409       .  A
C491        H495   1.083       .  S
C492        C493   1.406       .  A
C492        C872   1.490       .  S
C493        H496   1.083       .  S
C497        C498   1.404       .  A
C497        C502   1.405       .  A
C497        C803   1.491       .  S
C498        C499   1.405       .  A
C498        H503   1.083       .  S
C499        C500   1.409       .  A
C499        C776   1.490       .  S
C500        C501   1.409       .  A
C500        H504   1.083       .  S
C501        C502   1.408       .  A
C501        C752   1.490       .  S
C502        H505   1.083       .  S
C506        C507   1.407       .  A
C506        C511   1.408       .  A
C506        C728   1.496       .  S
C507        C508   1.404       .  A
C507        H512   1.083       .  S
C508        C509   1.407       .  A
C508        C683   1.491       .  S
C509        C510   1.408       .  A
C509        H513   1.083       .  S
C510        C511   1.410       .  A
C510        C704   1.493       .  S
C511        H514   1.082       .  S
C515        C552   1.463       .  S
C515        C947   1.475       .  S
C515        N533   1.348       .  A
N516        N533   1.323       .  A
N516        N538   1.319       .  A
N516       Co553   2.080       .  S
C517        C555   1.459       .  S
C517        H562   1.081       .  S
C517        N542   1.339       .  A
H518        C559   1.081       .  S
C519        C523   1.459       .  S
C519        H548   1.081       .  S
C519        N543   1.338       .  A
Co520       N538   2.087       .  S
Co520       N528   2.090       .  S
Co520       N560   2.088       .  S
Co520      N1492   2.084   1_455  S
Co520     Cl1520   2.455   1_455  S
N521        C559   1.343       .  A
N521       N1006   1.321   1_565  A
N521       Co522   2.094       .  S
Co522       N525   2.087       .  S
Co522       N529   2.091       .  S
C523        C920   1.478       .  S
C523        N561   1.352       .  A
N524        N531   1.320       .  A
N524        N554   1.325       .  A
N524      Co1513   2.085   1_455  S
N525        N543   1.320       .  A
N525        N561   1.326       .  A
N526        C555   1.350       .  A
N526        N536   1.325       .  A
H527        C552   1.082       .  S
N528        N999   1.321   1_455  A
N528        N549   1.325       .  A
N529        N547   1.320       .  A
N529        N534   1.324       .  A
C530        C558   1.464       .  S
C530        C779   1.481       .  S
C530        N534   1.351       .  A
N531        C546   1.342       .  A
C532        C535   1.462       .  S
C532        H566   1.081       .  S
C532        N560   1.339       .  A
C535        C755   1.485       .  S
C535        N556   1.353       .  A
N536        N542   1.320       .  A
N536      Co1476   2.084       .  S
N537        C563   1.341       .  A
N537       N1017   1.320   1_455  A
N537       Co553   2.086       .  S
N538        C552   1.343       .  A
N539       N1015   1.320   1_565  A
N539        N567   1.325       .  A
N539       Co557   2.088       .  S
H540        C563   1.081       .  S
H541        C558   1.081       .  S
N543       Co557   2.082       .  S
N544        N556   1.327       .  A
N544        N560   1.321       .  A
N544       Co553   2.095       .  S
C545        C559   1.466   1_554  S
C545        C656   1.486       .  S
C545       N1027   1.352   1_564  A
C546        C565   1.460       .  S
C546        H550   1.081   1_565  S
N547        C558   1.343       .  A
N547       Co557   2.089       .  S
N549       C1023   1.352   1_456  A
C551       C1519   1.464       .  S
C551        C632   1.484       .  S
Co553     Cl1520   2.449   1_455  S
N554        C565   1.349       .  A
C555        C899   1.474       .  S
Co557      N1480   2.085       .  S
C563       C1507   1.464   1_455  S
Cl564     Co1476   2.455       .  S
Cl564     Co1509   2.449       .  S
C565        C800   1.474       .  S
C568       C1083   1.465       .  S
C568        C659   1.485       .  S
C568        N586   1.352   1_545  A
N569        N586   1.325       .  A
N569       N1069   1.321   1_565  A
N569       Co606   2.089       .  S
C570        C608   1.462       .  S
C570        H615   1.081       .  S
C570        N595   1.343       .  A
H571        C612   1.081       .  S
C572        C576   1.464       .  S
C572       H1557   1.081   1_455  S
C572        N596   1.343       .  A
Co573       N591   2.093       .  S
Co573       N581   2.096       .  S
Co573      N1569   2.085   1_455  S
Co573       N589   2.091       .  S
Co573     Cl1573   2.454   1_455  S
N574        C612   1.339       .  A
N574        N581   1.320       .  A
N574       Co575   2.085       .  S
Co575       N595   2.088       .  S
Co575       N582   2.082       .  S
Co575     Cl1573   2.455   1_455  S
C576        C731   1.481       .  S
C576        N614   1.350       .  A
N577        N584   1.320       .  A
N577        N607   1.323       .  A
N577       Co610   2.087       .  S
N578        N596   1.321       .  A
N578        N614   1.325       .  A
N579        C608   1.351       .  A
N579        N589   1.325       .  A
H580        C605   1.081       .  S
N581        N602   1.328       .  A
N582       N1078   1.320   1_455  A
N582        N587   1.324       .  A
C583        C635   1.484       .  S
C583       N1543   1.350       .  A
N584        C599   1.346       .  A
N584       Co606   2.094       .  S
C585        C588   1.460       .  S
C585        H619   1.081       .  S
C585        N613   1.342       .  A
N587       C1539   1.350   1_455  A
C588        C827   1.474       .  S
C588        N609   1.349       .  A
N589        N595   1.320       .  A
N590        C616   1.338       .  A
N590        N592   1.320       .  A
N590       Co606   2.081       .  S
N591        C605   1.342       .  A
N591       N1047   1.321   1_455  A
N592        N620   1.329       .  A
N592       Co610   2.104       .  S
H593        C616   1.081       .  S
H594        C611   1.081       .  S
N596      Co1566   2.095   1_455  S
N597        N609   1.324       .  A
N597        N613   1.320       .  A
C598        C612   1.461       .  S
C598        C875   1.484       .  S
C598        N602   1.354       .  A
C599        C618   1.465       .  S
C599        H603   1.081       .  S
N600        C611   1.342       .  A
N600       N1060   1.320   1_565  A
N600       Co610   2.093       .  S
H601       C1528   1.081       .  S
C604        C616   1.460       .  S
C604        C707   1.486       .  S
C604        N620   1.356       .  A
C605       C1046   1.465       .  S
N607        C618   1.350       .  A
C608        C680   1.480       .  S
Co610      N1552   2.095       .  S
N613      Co1529   2.085       .  S
Cl617     Co1529   2.454       .  S
Cl617     Co1531   2.455       .  S
C618        C848   1.483       .  S
C621        C622   1.399       .  A
C621        C626   1.403       .  A
C621        H637   1.084       .  S
C622        C623   1.403       .  A
C622        H638   1.083       .  S
C623        C633   1.404       .  A
C624       C1586   1.411       .  A
C624        C625   1.414       .  A
C625       C1583   1.411       .  A
C626        C634   1.404       .  A
C627       C1581   1.411   1_455  A
C627        C636   1.405       .  A
C627        C628   1.404       .  A
C628        C629   1.400       .  A
C628        H639   1.084       .  S
C629        C630   1.404       .  A
C629        H640   1.084       .  S
C630       C1580   1.411   1_455  A
C630        C631   1.405       .  A
C631       C1588   1.408   1_455  A
C631        H641   1.083       .  S
C632       C1587   1.408       .  A
C633        H642   1.084       .  S
C634        H643   1.083       .  S
C635       C1592   1.409       .  A
C636       C1591   1.409   1_455  A
C636        H644   1.084       .  S
C645        C646   1.400       .  A
C645        H661   1.084       .  S
C646        C647   1.404       .  A
C646        H662   1.084       .  S
C647        C657   1.404       .  A
C647       C1126   1.411       .  A
C648       C1125   1.411   1_565  A
C648        C654   1.412       .  A
C648        C649   1.414       .  A
C649        C651   1.411       .  A
C649       C1606   1.411   1_565  A
C650       C1605   1.411   1_545  A
C650        C658   1.405       .  A
C651        C660   1.405       .  A
C651        C652   1.404       .  A
C652        C653   1.400       .  A
C652        H663   1.084       .  S
C653        C654   1.404       .  A
C653        H664   1.084       .  S
C654        C655   1.406       .  A
C655        C656   1.408       .  A
C655        H665   1.083       .  S
C656       C1135   1.408   1_565  A
C657       C1134   1.408   1_455  A
C657        H666   1.084       .  S
C658       C1615   1.408       .  A
C659       C1614   1.408       .  A
C659        C660   1.408   1_545  A
C660        H668   1.084       .  S
C669        C670   1.401       .  A
C669        C674   1.404       .  A
C669        H685   1.083       .  S
C670        C671   1.405       .  A
C670        H686   1.083       .  S
C671        C681   1.407       .  A
C671        C672   1.411       .  A
C672        C678   1.412       .  A
C672        C673   1.414       .  A
C673        C675   1.410       .  A
C673        C674   1.412       .  A
C674        C682   1.408       .  A
C675        C684   1.401       .  A
C675        C676   1.404       .  A
C676        C677   1.398       .  A
C676        H687   1.084       .  S
C677        C678   1.403       .  A
C677        H688   1.084       .  S
C678        C679   1.404       .  A
C679        C680   1.405       .  A
C679        H689   1.085       .  S
C680        C681   1.407       .  A
C681        H690   1.084       .  S
C682        C683   1.409       .  A
C682        H691   1.084       .  S
C683        C684   1.409       .  A
C684        H692   1.084       .  S
C693        C694   1.401       .  A
C693        C698   1.404       .  A
C693        H709   1.083       .  S
C694        C695   1.404       .  A
C694        H710   1.083       .  S
C695        C705   1.407       .  A
C695        C696   1.411       .  A
C696        C702   1.411       .  A
C696        C697   1.415       .  A
C697        C699   1.410       .  A
C697        C698   1.412       .  A
C698        C706   1.408       .  A
C699        C708   1.404       .  A
C699        C700   1.404       .  A
C700        C701   1.399       .  A
C700        H711   1.084       .  S
C701        C702   1.404       .  A
C701        H712   1.084       .  S
C702        C703   1.405       .  A
C703        C704   1.409       .  A
C703        H713   1.084       .  S
C704        C705   1.409       .  A
C705        H714   1.084       .  S
C706        C707   1.407       .  A
C706        H715   1.084       .  S
C707        C708   1.409       .  A
C708        H716   1.083       .  S
C717        C718   1.402       .  A
C717        C722   1.405       .  A
C717        H733   1.084       .  S
C718        C719   1.405       .  A
C718        H734   1.083       .  S
C719        C729   1.408       .  A
C719        C720   1.412       .  A
C720        C726   1.409       .  A
C720        C721   1.414       .  A
C721        C723   1.413       .  A
C721        C722   1.411       .  A
C722        C730   1.406       .  A
C723        C732   1.404       .  A
C723        C724   1.403       .  A
C724        C725   1.398       .  A
C724        H735   1.084       .  S
C725        C726   1.404       .  A
C725        H736   1.084       .  S
C726        C727   1.401       .  A
C727        C728   1.410       .  A
C727        H737   1.083       .  S
C728        C729   1.411       .  A
C729        H738   1.084       .  S
C730        C731   1.408       .  A
C730        H739   1.084       .  S
C731        C732   1.405       .  A
C732        H740   1.084       .  S
C741        C742   1.397       .  A
C741        C746   1.403       .  A
C741        H757   1.084       .  S
C742        C743   1.403       .  A
C742        H758   1.084       .  S
C743        C753   1.401       .  A
C743        C744   1.410       .  A
C744        C750   1.412       .  A
C744        C745   1.414       .  A
C745        C747   1.412       .  A
C745        C746   1.411       .  A
C746        C754   1.402       .  A
C747        C756   1.408       .  A
C747        C748   1.405       .  A
C748        C749   1.402       .  A
C748        H759   1.083       .  S
C749        C750   1.405       .  A
C749        H760   1.083       .  S
C750        C751   1.409       .  A
C751        C752   1.409       .  A
C751        H761   1.084       .  S
C752        C753   1.408       .  A
C753        H762   1.084       .  S
C754        C755   1.406       .  A
C754        H763   1.083       .  S
C755        C756   1.409       .  A
C756        H764   1.084       .  S
C765        C766   1.401       .  A
C765        C770   1.405       .  A
C765        H781   1.083       .  S
C766        C767   1.404       .  A
C766        H782   1.083       .  S
C767        C777   1.408       .  A
C767        C768   1.412       .  A
C768        C774   1.410       .  A
C768        C769   1.414       .  A
C769        C771   1.412       .  A
C769        C770   1.412       .  A
C770        C778   1.407       .  A
C771        C780   1.403       .  A
C771        C772   1.403       .  A
C772        C773   1.398       .  A
C772        H783   1.084       .  S
C773        C774   1.404       .  A
C773        H784   1.084       .  S
C774        C775   1.401       .  A
C775        C776   1.409       .  A
C775        H785   1.084       .  S
C776        C777   1.408       .  A
C777        H786   1.084       .  S
C778        C779   1.408       .  A
C778        H787   1.083       .  S
C779        C780   1.405       .  A
C780        H788   1.085       .  S
C789        C790   1.400       .  A
C789        C794   1.404       .  A
C789        H805   1.083       .  S
C790        C791   1.404       .  A
C790        H806   1.084       .  S
C791        C801   1.404       .  A
C791        C792   1.411       .  A
C792        C798   1.413       .  A
C792        C793   1.412       .  A
C793        C795   1.410       .  A
C793        C794   1.412       .  A
C794        C802   1.405       .  A
C795        C804   1.402       .  A
C795        C796   1.404       .  A
C796        C797   1.399       .  A
C796        H807   1.083       .  S
C797        C798   1.403       .  A
C797        H808   1.084       .  S
C798        C799   1.403       .  A
C799        C800   1.404       .  A
C799        H809   1.085       .  S
C800        C801   1.405       .  A
C801        H810   1.084       .  S
C802        C803   1.408       .  A
C802        H811   1.084       .  S
C803        C804   1.409       .  A
C804        H812   1.084       .  S
C813        C814   1.399       .  A
C813        C818   1.403       .  A
C813        H829   1.083       .  S
C814        C815   1.403       .  A
C814        H830   1.084       .  S
C815        C825   1.403       .  A
C815        C816   1.412       .  A
C816        C822   1.410       .  A
C816        C817   1.412       .  A
C817        C819   1.412       .  A
C817        C818   1.411       .  A
C818        C826   1.402       .  A
C819        C828   1.404       .  A
C819        C820   1.403       .  A
C820        C821   1.400       .  A
C820        H831   1.084       .  S
C821        C822   1.404       .  A
C821        H832   1.084       .  S
C822        C823   1.403       .  A
C823        C824   1.410       .  A
C823        H833   1.084       .  S
C824        C825   1.408       .  A
C825        H834   1.084       .  S
C826        C827   1.405       .  A
C826        H835   1.084       .  S
C827        C828   1.405       .  A
C828        H836   1.084       .  S
C837        C838   1.404       .  A
C837        C842   1.405       .  A
C837        H853   1.083       .  S
C838        C839   1.406       .  A
C838        H854   1.083       .  S
C839        C849   1.411       .  A
C839        C840   1.412       .  A
C840        C846   1.411       .  A
C840        C841   1.414       .  A
C841        C843   1.410       .  A
C841        C842   1.412       .  A
C842        C850   1.410       .  A
C843        C852   1.399       .  A
C843        C844   1.402       .  A
C844        C845   1.396       .  A
C844        H855   1.084       .  S
C845        C846   1.402       .  A
C845        H856   1.084       .  S
C846        C847   1.400       .  A
C847        C848   1.405       .  A
C847        H857   1.085       .  S
C848        C849   1.409       .  A
C849        H858   1.084       .  S
C850        C851   1.410       .  A
C850        H859   1.084       .  S
C851        C852   1.407       .  A
C852        H860   1.084       .  S
C861        C862   1.399       .  A
C861        C866   1.404       .  A
C861        H877   1.084       .  S
C862        C863   1.404       .  A
C862        H878   1.084       .  S
C863        C873   1.403       .  A
C863        C864   1.411       .  A
C864        C870   1.411       .  A
C864        C865   1.414       .  A
C865        C867   1.412       .  A
C865        C866   1.411       .  A
C866        C874   1.403       .  A
C867        C876   1.407       .  A
C867        C868   1.404       .  A
C868        C869   1.401       .  A
C868        H879   1.083       .  S
C869        C870   1.404       .  A
C869        H880   1.084       .  S
C870        C871   1.406       .  A
C871        C872   1.408       .  A
C871        H881   1.084       .  S
C872        C873   1.409       .  A
C873        H882   1.084       .  S
C874        C875   1.407       .  A
C874        H883   1.083       .  S
C875        C876   1.408       .  A
C876        H884   1.084       .  S
C885        C886   1.400       .  A
C885        C890   1.404       .  A
C885        H901   1.084       .  S
C886        C887   1.404       .  A
C886        H902   1.083       .  S
C887        C897   1.405       .  A
C887        C888   1.411       .  A
C888        C894   1.409       .  A
C888        C889   1.411       .  A
C889        C891   1.412       .  A
C889        C890   1.411       .  A
C890        C898   1.404       .  A
C891        C900   1.400       .  A
C891        C892   1.402       .  A
C892        C893   1.396       .  A
C892        H903   1.084       .  S
C893        C894   1.403       .  A
C893        H904   1.084       .  S
C894        C895   1.398       .  A
C895        C896   1.410       .  A
C895        H905   1.083       .  S
C896        C897   1.411       .  A
C897        H906   1.083       .  S
C898        C899   1.406       .  A
C898        H907   1.084       .  S
C899        C900   1.404       .  A
C900        H908   1.084       .  S
C909        C910   1.397       .  A
C909        C914   1.403       .  A
C909        H925   1.084       .  S
C910        C911   1.403       .  A
C910        H926   1.084       .  S
C911        C921   1.400       .  A
C911        C912   1.411       .  A
C912        C918   1.412       .  A
C912        C913   1.412       .  A
C913        C915   1.411       .  A
C913        C914   1.411       .  A
C914        C922   1.401       .  A
C915        C924   1.404       .  A
C915        C916   1.404       .  A
C916        C917   1.400       .  A
C916        H927   1.084   1_556  S
C917        C918   1.404       .  A
C917        H928   1.083       .  S
C918        C919   1.406       .  A
C919        C920   1.407       .  A
C919        H929   1.084       .  S
C920        C921   1.405       .  A
C921        H930   1.084       .  S
C922        C923   1.407       .  A
C922        H931   1.084       .  S
C923        C924   1.409       .  A
C924        H932   1.084       .  S
C933        C934   1.398       .  A
C933        C938   1.403       .  A
C933        H949   1.084       .  S
C934        C935   1.404       .  A
C934        H950   1.084       .  S
C935        C945   1.401       .  A
C935        C936   1.411       .  A
C936        C942   1.412       .  A
C936        C937   1.412       .  A
C937        C939   1.412       .  A
C937        C938   1.412       .  A
C938        C946   1.402       .  A
C939        C948   1.404       .  A
C939        C940   1.404       .  A
C940        C941   1.400       .  A
C940        H951   1.083       .  S
C941        C942   1.403       .  A
C941        H952   1.084   1_556  S
C942        C943   1.404       .  A
C943        C944   1.407       .  A
C943        H953   1.084       .  S
C944        C945   1.408       .  A
C945        H954   1.084       .  S
C946        C947   1.405       .  A
C946        H955   1.085       .  S
C947        C948   1.405       .  A
C948        H956   1.084       .  S
C957        C958   1.408       .  A
C957        C962   1.407       .  A
C957       C1374   1.495       .  S
C958        C959   1.407       .  A
C958        H963   1.081       .  S
C959        C960   1.405       .  A
C959       C1401   1.488       .  S
C960        C961   1.403       .  A
C960        H964   1.083       .  S
C961        C962   1.403       .  A
C961       C1422   1.486       .  S
C962        H965   1.082       .  S
C966        C967   1.405       .  A
C966        C971   1.405       .  A
C966       C1302   1.490       .  S
C967        C968   1.407       .  A
C967        H972   1.083       .  S
C968        C969   1.407       .  A
C968       C1329   1.490       .  S
C969        C970   1.409       .  A
C969        H973   1.083       .  S
C970        C971   1.406       .  A
C970       C1350   1.490       .  S
C971        H974   1.083       .  S
C975        C976   1.404       .  A
C975        C980   1.405       .  A
C975       C1281   1.491       .  S
C976        C977   1.405       .  A
C976        H981   1.083       .  S
C977        C978   1.409       .  A
C977       C1254   1.490       .  S
C978        C979   1.409       .  A
C978        H982   1.083       .  S
C979        C980   1.408       .  A
C979       C1230   1.490       .  S
C980        H983   1.083       .  S
C984        C985   1.407       .  A
C984        C989   1.408       .  A
C984       C1206   1.496       .  S
C985        C986   1.404       .  A
C985        H990   1.083       .  S
C986        C987   1.407       .  A
C986       C1161   1.491       .  S
C987        C988   1.408       .  A
C987        H991   1.083       .  S
C988        C989   1.410       .  A
C988       C1182   1.493       .  S
C989        H992   1.082       .  S
C993       C1030   1.463       .  S
C993       C1425   1.475       .  S
C993       N1011   1.348       .  A
N994       N1011   1.323       .  A
N994       N1016   1.319       .  A
N994      Co1031   2.080       .  S
C995       C1033   1.459       .  S
C995       H1040   1.081   1_545  S
C995       N1020   1.339       .  A
H996       C1037   1.081       .  S
C997       C1001   1.459       .  S
C997       H1026   1.081       .  S
C997       N1021   1.338       .  A
Co998      N1016   2.087       .  S
Co998      N1006   2.090       .  S
Co998      N1038   2.088       .  S
N999       C1037   1.343       .  A
N999      Co1000   2.094       .  S
Co1000     N1003   2.087       .  S
Co1000     N1498   2.079       .  S
Co1000     N1007   2.091       .  S
Co1000    Cl1520   2.451       .  S
C1001      C1398   1.478       .  S
C1001      N1039   1.352       .  A
N1002      N1009   1.320       .  A
N1002      N1032   1.325       .  A
N1003      N1021   1.320       .  A
N1003      N1039   1.326       .  A
N1004      C1033   1.350       .  A
N1004      N1014   1.325       .  A
H1005      C1030   1.082       .  S
N1006      N1027   1.325       .  A
N1007      N1025   1.320       .  A
N1007      N1012   1.324       .  A
C1008      C1036   1.464       .  S
C1008      C1257   1.481       .  S
C1008      N1012   1.351       .  A
N1009      C1024   1.342       .  A
N1009     Co1509   2.087       .  S
C1010      C1013   1.462       .  S
C1010      H1044   1.081       .  S
C1010      N1038   1.339       .  A
C1013      C1233   1.485       .  S
C1013      N1034   1.353       .  A
N1014      N1020   1.320       .  A
N1015      C1041   1.341       .  A
N1015     Co1031   2.086       .  S
N1016      C1030   1.343       .  A
N1017      N1045   1.325       .  A
N1017     Co1035   2.088       .  S
H1018      C1041   1.081       .  S
H1019      C1036   1.081       .  S
N1020     Co1478   2.079   1_545  S
N1021     Co1035   2.082       .  S
N1022      N1034   1.327       .  A
N1022      N1038   1.321       .  A
N1022     Co1031   2.095       .  S
C1023      C1037   1.466   1_554  S
C1023      C1134   1.486       .  S
C1024      C1043   1.460       .  S
C1024      H1028   1.081       .  S
N1025      C1036   1.343       .  A
N1025     Co1035   2.089       .  S
C1029      C1110   1.484       .  S
C1029      N1523   1.352   1_545  A
Co1031     N1487   2.087   1_545  S
N1032      C1043   1.349       .  A
C1033      C1377   1.474       .  S
Co1035    Cl1520   2.455       .  S
Cl1042    Co1478   2.451   1_545  S
Cl1042    Co1513   2.455   1_545  S
C1043      C1278   1.474       .  S
N1045      C1507   1.352       .  A
C1046      C1137   1.485       .  S
C1046      N1064   1.352   1_455  A
N1047      N1064   1.325       .  A
N1047     Co1084   2.089       .  S
C1048      C1086   1.462       .  S
C1048      H1093   1.082       .  S
C1048      N1073   1.343       .  A
H1049      C1090   1.081       .  S
C1050      C1054   1.464       .  S
C1050      N1074   1.343       .  A
Co1051     N1069   2.093       .  S
Co1051     N1059   2.096       .  S
Co1051     N1067   2.091       .  S
N1052      C1090   1.339       .  A
N1052      N1059   1.320       .  A
N1052     Co1053   2.085       .  S
Co1053     N1534   2.086   1_545  S
Co1053     N1073   2.088       .  S
Co1053     N1060   2.082       .  S
C1054      C1209   1.481       .  S
C1054      N1092   1.350       .  A
N1055      N1062   1.320       .  A
N1055      N1085   1.323       .  A
N1055     Co1088   2.087       .  S
N1056      N1074   1.321       .  A
N1056      N1092   1.325       .  A
N1056     Co1531   2.086       .  S
N1057      C1086   1.351       .  A
N1057      N1067   1.325       .  A
H1058      C1083   1.081       .  S
N1059      N1080   1.328       .  A
N1060      N1065   1.324       .  A
C1061      C1567   1.466   1_545  S
C1061      C1113   1.484       .  S
N1062      C1077   1.346       .  A
N1062     Co1084   2.094       .  S
C1063      C1066   1.460       .  S
C1063      H1097   1.081       .  S
C1063      N1091   1.342       .  A
C1066      C1305   1.474       .  S
C1066      N1087   1.349       .  A
N1067      N1073   1.320       .  A
N1068      C1094   1.338       .  A
N1068      N1070   1.320       .  A
N1068     Co1084   2.081       .  S
N1069      C1083   1.342       .  A
N1070      N1098   1.329       .  A
N1070     Co1088   2.104       .  S
H1071      C1094   1.081       .  S
H1072      C1089   1.081       .  S
N1075      N1087   1.324       .  A
N1075      N1091   1.320       .  A
N1075     Co1562   2.085   1_545  S
C1076      C1090   1.461       .  S
C1076      C1353   1.484       .  S
C1076      N1080   1.354       .  A
C1077      C1096   1.465       .  S
C1077      H1081   1.081       .  S
N1078      C1089   1.342       .  A
N1078     Co1088   2.093       .  S
C1082      C1094   1.460       .  S
C1082      C1185   1.486       .  S
C1082      N1098   1.356       .  A
Co1084     N1553   2.085       .  S
Co1084    Cl1573   2.455       .  S
N1085      C1096   1.350       .  A
C1086      C1158   1.480       .  S
Co1088    Cl1573   2.452       .  S
C1089      C1539   1.466       .  S
Cl1095    Co1562   2.455   1_545  S
Cl1095    Co1566   2.452   1_545  S
C1096      C1326   1.483       .  S
C1099      C1100   1.399       .  A
C1099      C1104   1.403       .  A
C1099      H1115   1.084       .  S
C1100      C1101   1.403       .  A
C1100      H1116   1.083       .  S
C1101      C1111   1.404       .  A
C1101      C1580   1.411       .  A
C1102      C1579   1.411   1_545  A
C1102      C1103   1.414       .  A
C1103      C1582   1.411   1_545  A
C1104      C1581   1.411       .  A
C1104      C1112   1.404       .  A
C1105      C1114   1.405       .  A
C1105      C1106   1.404       .  A
C1106      C1107   1.400       .  A
C1106      H1117   1.084       .  S
C1107      C1108   1.404       .  A
C1107      H1118   1.084       .  S
C1108      C1109   1.405       .  A
C1109      H1119   1.083       .  S
C1110      C1589   1.407   1_545  A
C1111      C1588   1.407       .  A
C1111      H1120   1.084       .  S
C1112      C1591   1.407       .  A
C1112      H1121   1.083       .  S
C1113      C1590   1.407   1_545  A
C1114      H1122   1.084       .  S
C1123      C1124   1.400       .  A
C1123      C1606   1.404       .  A
C1123      H1139   1.084       .  S
C1124      C1125   1.404       .  A
C1124      H1140   1.084       .  S
C1125      C1135   1.404       .  A
C1126      C1132   1.412   1_455  A
C1126      C1127   1.414       .  A
C1127      C1129   1.411   1_455  A
C1128      C1601   1.404       .  A
C1128      C1136   1.405       .  A
C1129      C1138   1.405       .  A
C1129      C1130   1.404       .  A
C1130      C1131   1.400       .  A
C1130      H1141   1.084       .  S
C1131      C1132   1.404       .  A
C1131      H1142   1.084       .  S
C1132      C1133   1.406       .  A
C1133      C1134   1.408       .  A
C1133      H1143   1.083       .  S
C1135      H1144   1.084       .  S
C1136      H1623   1.083       .  S
C1137      C1138   1.408   1_455  A
C1138      H1146   1.084       .  S
H1145      C1614   1.083       .  S
C1147      C1148   1.401       .  A
C1147      C1152   1.404       .  A
C1147      H1163   1.083       .  S
C1148      C1149   1.405       .  A
C1148      H1164   1.083       .  S
C1149      C1159   1.407       .  A
C1149      C1150   1.411       .  A
C1150      C1156   1.412       .  A
C1150      C1151   1.414       .  A
C1151      C1153   1.410       .  A
C1151      C1152   1.412       .  A
C1152      C1160   1.408       .  A
C1153      C1162   1.401       .  A
C1153      C1154   1.404       .  A
C1154      C1155   1.398       .  A
C1154      H1165   1.084       .  S
C1155      C1156   1.403       .  A
C1155      H1166   1.084       .  S
C1156      C1157   1.404       .  A
C1157      C1158   1.405       .  A
C1157      H1167   1.085       .  S
C1158      C1159   1.407       .  A
C1159      H1168   1.084       .  S
C1160      C1161   1.409       .  A
C1160      H1169   1.084       .  S
C1161      C1162   1.409       .  A
C1162      H1170   1.084       .  S
C1171      C1172   1.401       .  A
C1171      C1176   1.404       .  A
C1171      H1187   1.083       .  S
C1172      C1173   1.404       .  A
C1172      H1188   1.083       .  S
C1173      C1183   1.407       .  A
C1173      C1174   1.411       .  A
C1174      C1180   1.411       .  A
C1174      C1175   1.415       .  A
C1175      C1177   1.410       .  A
C1175      C1176   1.412       .  A
C1176      C1184   1.408       .  A
C1177      C1186   1.404       .  A
C1177      C1178   1.404       .  A
C1178      C1179   1.399       .  A
C1178      H1189   1.084       .  S
C1179      C1180   1.404       .  A
C1179      H1190   1.084       .  S
C1180      C1181   1.405       .  A
C1181      C1182   1.409       .  A
C1181      H1191   1.084       .  S
C1182      C1183   1.409       .  A
C1183      H1192   1.084       .  S
C1184      C1185   1.407       .  A
C1184      H1193   1.084       .  S
C1185      C1186   1.409       .  A
C1186      H1194   1.083       .  S
C1195      C1196   1.402       .  A
C1195      C1200   1.405       .  A
C1195      H1211   1.084       .  S
C1196      C1197   1.405       .  A
C1196      H1212   1.083       .  S
C1197      C1207   1.408       .  A
C1197      C1198   1.412       .  A
C1198      C1204   1.409       .  A
C1198      C1199   1.414       .  A
C1199      C1201   1.413       .  A
C1199      C1200   1.411       .  A
C1200      C1208   1.406       .  A
C1201      C1210   1.404       .  A
C1201      C1202   1.403       .  A
C1202      C1203   1.398       .  A
C1202      H1213   1.084       .  S
C1203      C1204   1.404       .  A
C1203      H1214   1.084       .  S
C1204      C1205   1.401       .  A
C1205      C1206   1.410       .  A
C1205      H1215   1.083       .  S
C1206      C1207   1.411       .  A
C1207      H1216   1.084       .  S
C1208      C1209   1.408       .  A
C1208      H1217   1.084       .  S
C1209      C1210   1.405       .  A
C1210      H1218   1.084       .  S
C1219      C1220   1.397       .  A
C1219      C1224   1.403       .  A
C1219      H1235   1.084       .  S
C1220      C1221   1.403       .  A
C1220      H1236   1.084       .  S
C1221      C1231   1.401       .  A
C1221      C1222   1.410       .  A
C1222      C1228   1.412       .  A
C1222      C1223   1.414       .  A
C1223      C1225   1.412       .  A
C1223      C1224   1.411       .  A
C1224      C1232   1.402       .  A
C1225      C1234   1.408       .  A
C1225      C1226   1.405       .  A
C1226      C1227   1.402       .  A
C1226      H1237   1.083       .  S
C1227      C1228   1.405       .  A
C1227      H1238   1.083       .  S
C1228      C1229   1.409       .  A
C1229      C1230   1.409       .  A
C1229      H1239   1.084       .  S
C1230      C1231   1.408       .  A
C1231      H1240   1.084       .  S
C1232      C1233   1.406       .  A
C1232      H1241   1.083       .  S
C1233      C1234   1.409       .  A
C1234      H1242   1.084       .  S
C1243      C1244   1.401       .  A
C1243      C1248   1.405       .  A
C1243      H1259   1.083       .  S
C1244      C1245   1.404       .  A
C1244      H1260   1.083       .  S
C1245      C1255   1.408       .  A
C1245      C1246   1.412       .  A
C1246      C1252   1.410       .  A
C1246      C1247   1.414       .  A
C1247      C1249   1.412       .  A
C1247      C1248   1.412       .  A
C1248      C1256   1.407       .  A
C1249      C1258   1.403       .  A
C1249      C1250   1.403       .  A
C1250      C1251   1.398       .  A
C1250      H1261   1.084       .  S
C1251      C1252   1.404       .  A
C1251      H1262   1.084       .  S
C1252      C1253   1.401       .  A
C1253      C1254   1.409       .  A
C1253      H1263   1.084       .  S
C1254      C1255   1.408       .  A
C1255      H1264   1.084       .  S
C1256      C1257   1.408       .  A
C1256      H1265   1.083       .  S
C1257      C1258   1.405       .  A
C1258      H1266   1.085       .  S
C1267      C1268   1.400       .  A
C1267      C1272   1.404       .  A
C1267      H1283   1.083       .  S
C1268      C1269   1.404       .  A
C1268      H1284   1.084       .  S
C1269      C1279   1.404       .  A
C1269      C1270   1.411       .  A
C1270      C1276   1.413       .  A
C1270      C1271   1.412       .  A
C1271      C1273   1.410       .  A
C1271      C1272   1.412       .  A
C1272      C1280   1.405       .  A
C1273      C1282   1.402       .  A
C1273      C1274   1.404       .  A
C1274      C1275   1.399       .  A
C1274      H1285   1.083       .  S
C1275      C1276   1.403       .  A
C1275      H1286   1.084       .  S
C1276      C1277   1.403       .  A
C1277      C1278   1.404       .  A
C1277      H1287   1.085       .  S
C1278      C1279   1.405       .  A
C1279      H1288   1.084       .  S
C1280      C1281   1.408       .  A
C1280      H1289   1.084       .  S
C1281      C1282   1.409       .  A
C1282      H1290   1.084       .  S
C1291      C1292   1.399       .  A
C1291      C1296   1.403       .  A
C1291      H1307   1.083       .  S
C1292      C1293   1.403       .  A
C1292      H1308   1.084       .  S
C1293      C1303   1.403       .  A
C1293      C1294   1.412       .  A
C1294      C1300   1.410       .  A
C1294      C1295   1.412       .  A
C1295      C1297   1.412       .  A
C1295      C1296   1.411       .  A
C1296      C1304   1.402       .  A
C1297      C1306   1.404       .  A
C1297      C1298   1.403       .  A
C1298      C1299   1.400       .  A
C1298      H1309   1.084       .  S
C1299      C1300   1.404       .  A
C1299      H1310   1.084       .  S
C1300      C1301   1.403       .  A
C1301      C1302   1.410       .  A
C1301      H1311   1.084       .  S
C1302      C1303   1.408       .  A
C1303      H1312   1.084       .  S
C1304      C1305   1.405       .  A
C1304      H1313   1.084       .  S
C1305      C1306   1.405       .  A
C1306      H1314   1.084       .  S
C1315      C1316   1.404       .  A
C1315      C1320   1.405       .  A
C1315      H1331   1.083       .  S
C1316      C1317   1.406       .  A
C1316      H1332   1.083       .  S
C1317      C1327   1.411       .  A
C1317      C1318   1.412       .  A
C1318      C1324   1.411       .  A
C1318      C1319   1.414       .  A
C1319      C1321   1.410       .  A
C1319      C1320   1.412       .  A
C1320      C1328   1.410       .  A
C1321      C1330   1.399       .  A
C1321      C1322   1.402       .  A
C1322      C1323   1.396       .  A
C1322      H1333   1.084       .  S
C1323      C1324   1.402       .  A
C1323      H1334   1.084       .  S
C1324      C1325   1.400       .  A
C1325      C1326   1.405       .  A
C1325      H1335   1.085       .  S
C1326      C1327   1.409       .  A
C1327      H1336   1.084       .  S
C1328      C1329   1.410       .  A
C1328      H1337   1.084       .  S
C1329      C1330   1.407       .  A
C1330      H1338   1.084       .  S
C1339      C1340   1.399       .  A
C1339      C1344   1.404       .  A
C1339      H1355   1.084       .  S
C1340      C1341   1.404       .  A
C1340      H1356   1.084       .  S
C1341      C1351   1.403       .  A
C1341      C1342   1.411       .  A
C1342      C1348   1.411       .  A
C1342      C1343   1.414       .  A
C1343      C1345   1.412       .  A
C1343      C1344   1.411       .  A
C1344      C1352   1.403       .  A
C1345      C1354   1.407       .  A
C1345      C1346   1.404       .  A
C1346      C1347   1.401       .  A
C1346      H1357   1.083       .  S
C1347      C1348   1.404       .  A
C1347      H1358   1.084       .  S
C1348      C1349   1.406       .  A
C1349      C1350   1.408       .  A
C1349      H1359   1.084       .  S
C1350      C1351   1.409       .  A
C1351      H1360   1.084       .  S
C1352      C1353   1.407       .  A
C1352      H1361   1.083       .  S
C1353      C1354   1.408       .  A
C1354      H1362   1.084       .  S
C1363      C1364   1.400       .  A
C1363      C1368   1.404       .  A
C1363      H1379   1.084       .  S
C1364      C1365   1.404       .  A
C1364      H1380   1.083       .  S
C1365      C1375   1.405       .  A
C1365      C1366   1.411       .  A
C1366      C1372   1.409       .  A
C1366      C1367   1.411       .  A
C1367      C1369   1.412       .  A
C1367      C1368   1.411       .  A
C1368      C1376   1.404       .  A
C1369      C1378   1.400       .  A
C1369      C1370   1.402       .  A
C1370      C1371   1.396       .  A
C1370      H1381   1.084       .  S
C1371      C1372   1.403       .  A
C1371      H1382   1.084       .  S
C1372      C1373   1.398       .  A
C1373      C1374   1.410       .  A
C1373      H1383   1.083       .  S
C1374      C1375   1.411       .  A
C1375      H1384   1.083       .  S
C1376      C1377   1.406       .  A
C1376      H1385   1.084       .  S
C1377      C1378   1.404       .  A
C1378      H1386   1.084       .  S
C1387      C1388   1.397       .  A
C1387      C1392   1.403       .  A
C1387      H1403   1.084       .  S
C1388      C1389   1.403       .  A
C1388      H1404   1.084       .  S
C1389      C1399   1.400       .  A
C1389      C1390   1.411       .  A
C1390      C1396   1.412       .  A
C1390      C1391   1.412       .  A
C1391      C1393   1.411       .  A
C1391      C1392   1.411       .  A
C1392      C1400   1.401       .  A
C1393      C1402   1.404       .  A
C1393      C1394   1.404       .  A
C1394      C1395   1.400       .  A
C1394      H1405   1.084   1_556  S
C1395      C1396   1.404       .  A
C1395      H1406   1.083       .  S
C1396      C1397   1.406       .  A
C1397      C1398   1.407       .  A
C1397      H1407   1.084       .  S
C1398      C1399   1.405       .  A
C1399      H1408   1.084       .  S
C1400      C1401   1.407       .  A
C1400      H1409   1.084       .  S
C1401      C1402   1.409       .  A
C1402      H1410   1.084       .  S
C1411      C1412   1.398       .  A
C1411      C1416   1.403       .  A
C1411      H1427   1.084       .  S
C1412      C1413   1.404       .  A
C1412      H1428   1.084       .  S
C1413      C1423   1.401       .  A
C1413      C1414   1.411       .  A
C1414      C1420   1.412       .  A
C1414      C1415   1.412       .  A
C1415      C1417   1.412       .  A
C1415      C1416   1.412       .  A
C1416      C1424   1.402       .  A
C1417      C1426   1.404       .  A
C1417      C1418   1.404       .  A
C1418      C1419   1.400       .  A
C1418      H1429   1.083       .  S
C1419      C1420   1.403       .  A
C1419      H1430   1.084   1_556  S
C1420      C1421   1.404       .  A
C1421      C1422   1.407       .  A
C1421      H1431   1.084       .  S
C1422      C1423   1.408       .  A
C1423      H1432   1.084       .  S
C1424      C1425   1.405       .  A
C1424      H1433   1.085       .  S
C1425      C1426   1.405       .  A
C1426      H1434   1.084       .  S
C1435      C1436   1.408       .  A
C1435      C1440   1.407       .  A
C1435      C1852   1.495       .  S
C1436      C1437   1.407       .  A
C1436      H1441   1.081       .  S
C1437      C1438   1.405       .  A
C1437      C1879   1.488       .  S
C1438      C1439   1.403       .  A
C1438      H1442   1.083       .  S
C1439      C1440   1.403       .  A
C1439      C1900   1.486       .  S
C1440      H1443   1.082       .  S
C1444      C1445   1.405       .  A
C1444      C1449   1.405       .  A
C1444      C1780   1.490       .  S
C1445      C1446   1.407       .  A
C1445      H1450   1.083       .  S
C1446      C1447   1.407       .  A
C1446      C1807   1.490       .  S
C1447      C1448   1.409       .  A
C1447      H1451   1.083       .  S
C1448      C1449   1.406       .  A
C1448      C1828   1.490       .  S
C1449      H1452   1.083       .  S
C1453      C1454   1.404       .  A
C1453      C1458   1.405       .  A
C1453      C1759   1.491       .  S
C1454      C1455   1.405       .  A
C1454      H1459   1.083       .  S
C1455      C1456   1.409       .  A
C1455      C1732   1.490       .  S
C1456      C1457   1.409       .  A
C1456      H1460   1.083       .  S
C1457      C1458   1.408       .  A
C1457      C1708   1.490       .  S
C1458      H1461   1.083       .  S
C1462      C1463   1.407       .  A
C1462      C1467   1.408       .  A
C1462      C1684   1.496       .  S
C1463      C1464   1.404       .  A
C1463      H1468   1.083       .  S
C1464      C1465   1.407       .  A
C1464      C1639   1.491       .  S
C1465      C1466   1.408       .  A
C1465      H1469   1.083       .  S
C1466      C1467   1.410       .  A
C1466      C1660   1.493       .  S
C1467      H1470   1.082       .  S
C1471      C1508   1.463       .  S
C1471      C1903   1.475       .  S
C1471      N1489   1.348       .  A
N1472      N1489   1.323       .  A
N1472      N1494   1.319       .  A
N1472     Co1509   2.080       .  S
C1473      C1511   1.459       .  S
C1473      H1518   1.081       .  S
C1473      N1498   1.339       .  A
H1474      C1515   1.081       .  S
C1475      C1479   1.459       .  S
C1475      H1504   1.081       .  S
C1475      N1499   1.338       .  A
Co1476     N1494   2.087       .  S
Co1476     N1484   2.090       .  S
Co1476     N1516   2.088       .  S
N1477      C1515   1.343       .  A
N1477     Co1478   2.094       .  S
Co1478     N1481   2.087       .  S
Co1478     N1485   2.091       .  S
C1479      C1876   1.478       .  S
C1479      N1517   1.352       .  A
N1480      N1487   1.320       .  A
N1480      N1510   1.325       .  A
N1481      N1499   1.320       .  A
N1481      N1517   1.326       .  A
N1482      C1511   1.350       .  A
N1482      N1492   1.325       .  A
H1483      C1508   1.082       .  S
N1484      N1505   1.325       .  A
N1485      N1503   1.320       .  A
N1485      N1490   1.324       .  A
C1486      C1514   1.464       .  S
C1486      C1735   1.481       .  S
C1486      N1490   1.351       .  A
N1487      C1502   1.342       .  A
C1488      C1491   1.462       .  S
C1488      H1522   1.081       .  S
C1488      N1516   1.339       .  A
C1491      C1711   1.485       .  S
C1491      N1512   1.353       .  A
N1492      N1498   1.320       .  A
N1493      C1519   1.341       .  A
N1493     Co1509   2.086       .  S
N1494      C1508   1.343       .  A
N1495      N1523   1.325       .  A
N1495     Co1513   2.088       .  S
H1496      C1519   1.081       .  S
H1497      C1514   1.081       .  S
N1499     Co1513   2.082       .  S
N1500      N1512   1.327       .  A
N1500      N1516   1.321       .  A
N1500     Co1509   2.095       .  S
C1501      C1515   1.466   1_554  S
C1501      C1612   1.486       .  S
C1502      C1521   1.460       .  S
C1502      H1506   1.081   1_565  S
N1503      C1514   1.343       .  A
N1503     Co1513   2.089       .  S
C1507      C1588   1.484       .  S
N1510      C1521   1.349       .  A
C1511      C1855   1.474       .  S
C1521      C1756   1.474       .  S
C1524      C1615   1.485       .  S
C1524      N1542   1.352   1_445  A
N1525      N1542   1.325       .  A
N1525     Co1562   2.089       .  S
C1526      C1564   1.462       .  S
C1526      H1571   1.081       .  S
C1526      N1551   1.343       .  A
H1527      C1568   1.081       .  S
C1528      C1532   1.464       .  S
C1528      N1552   1.343       .  A
Co1529     N1547   2.093       .  S
Co1529     N1537   2.096       .  S
Co1529     N1545   2.091       .  S
N1530      C1568   1.339       .  A
N1530      N1537   1.320       .  A
N1530     Co1531   2.085       .  S
Co1531     N1551   2.088       .  S
Co1531     N1538   2.082       .  S
C1532      C1687   1.481       .  S
C1532      N1570   1.350       .  A
N1533      N1540   1.320       .  A
N1533      N1563   1.323       .  A
N1533     Co1566   2.087       .  S
N1534      N1552   1.321       .  A
N1534      N1570   1.325       .  A
N1535      C1564   1.351       .  A
N1535      N1545   1.325       .  A
H1536      C1561   1.081       .  S
N1537      N1558   1.328       .  A
N1538      N1543   1.324       .  A
C1539      C1591   1.484       .  S
N1540      C1555   1.346       .  A
N1540     Co1562   2.094       .  S
C1541      C1544   1.460       .  S
C1541      H1575   1.081       .  S
C1541      N1569   1.342       .  A
C1544      C1783   1.474       .  S
C1544      N1565   1.349       .  A
N1545      N1551   1.320       .  A
N1546      C1572   1.338       .  A
N1546      N1548   1.320       .  A
N1546     Co1562   2.081       .  S
N1547      C1561   1.342       .  A
N1548      N1576   1.329       .  A
N1548     Co1566   2.104       .  S
H1549      C1572   1.081       .  S
H1550      C1567   1.081       .  S
N1553      N1565   1.324       .  A
N1553      N1569   1.320       .  A
C1554      C1568   1.461       .  S
C1554      C1831   1.484       .  S
C1554      N1558   1.354       .  A
C1555      C1574   1.465       .  S
C1555      H1559   1.081       .  S
N1556      C1567   1.342       .  A
N1556     Co1566   2.093       .  S
C1560      C1572   1.460       .  S
C1560      C1663   1.486       .  S
C1560      N1576   1.356       .  A
N1563      C1574   1.350       .  A
C1564      C1636   1.480       .  S
C1574      C1804   1.483       .  S
C1577      C1578   1.399       .  A
C1577      C1582   1.403       .  A
C1577      H1593   1.084       .  S
C1578      C1579   1.403       .  A
C1578      H1594   1.083       .  S
C1579      C1589   1.404       .  A
C1580      C1581   1.414       .  A
C1582      C1590   1.404       .  A
C1583      C1592   1.405       .  A
C1583      C1584   1.404       .  A
C1584      C1585   1.400       .  A
C1584      H1595   1.084       .  S
C1585      C1586   1.404       .  A
C1585      H1596   1.084       .  S
C1586      C1587   1.405       .  A
C1587      H1597   1.083       .  S
C1589      H1598   1.084       .  S
C1590      H1599   1.083       .  S
C1592      H1600   1.084       .  S
C1601      C1602   1.400       .  A
C1601      H1617   1.084       .  S
C1602      C1603   1.404       .  A
C1602      H1618   1.084       .  S
C1603      C1613   1.404       .  A
C1604      C1610   1.412   1_455  A
C1604      C1605   1.414       .  A
C1605      C1607   1.411   1_455  A
C1606      C1614   1.405       .  A
C1607      C1616   1.405       .  A
C1607      C1608   1.404       .  A
C1608      C1609   1.400       .  A
C1608      H1619   1.084       .  S
C1609      C1610   1.404       .  A
C1609      H1620   1.084       .  S
C1610      C1611   1.406       .  A
C1611      C1612   1.408       .  A
C1611      H1621   1.083       .  S
C1613      H1622   1.084       .  S
C1615      C1616   1.408   1_445  A
C1616      H1624   1.084       .  S
C1625      C1626   1.401       .  A
C1625      C1630   1.404       .  A
C1625      H1641   1.083       .  S
C1626      C1627   1.405       .  A
C1626      H1642   1.083       .  S
C1627      C1637   1.407       .  A
C1627      C1628   1.411       .  A
C1628      C1634   1.412       .  A
C1628      C1629   1.414       .  A
C1629      C1631   1.410       .  A
C1629      C1630   1.412       .  A
C1630      C1638   1.408       .  A
C1631      C1640   1.401       .  A
C1631      C1632   1.404       .  A
C1632      C1633   1.398       .  A
C1632      H1643   1.084       .  S
C1633      C1634   1.403       .  A
C1633      H1644   1.084       .  S
C1634      C1635   1.404       .  A
C1635      C1636   1.405       .  A
C1635      H1645   1.085       .  S
C1636      C1637   1.407       .  A
C1637      H1646   1.084       .  S
C1638      C1639   1.409       .  A
C1638      H1647   1.084       .  S
C1639      C1640   1.409       .  A
C1640      H1648   1.084       .  S
C1649      C1650   1.401       .  A
C1649      C1654   1.404       .  A
C1649      H1665   1.083       .  S
C1650      C1651   1.404       .  A
C1650      H1666   1.083       .  S
C1651      C1661   1.407       .  A
C1651      C1652   1.411       .  A
C1652      C1658   1.411       .  A
C1652      C1653   1.415       .  A
C1653      C1655   1.410       .  A
C1653      C1654   1.412       .  A
C1654      C1662   1.408       .  A
C1655      C1664   1.404       .  A
C1655      C1656   1.404       .  A
C1656      C1657   1.399       .  A
C1656      H1667   1.084       .  S
C1657      C1658   1.404       .  A
C1657      H1668   1.084       .  S
C1658      C1659   1.405       .  A
C1659      C1660   1.409       .  A
C1659      H1669   1.084       .  S
C1660      C1661   1.409       .  A
C1661      H1670   1.084       .  S
C1662      C1663   1.407       .  A
C1662      H1671   1.084       .  S
C1663      C1664   1.409       .  A
C1664      H1672   1.083       .  S
C1673      C1674   1.402       .  A
C1673      C1678   1.405       .  A
C1673      H1689   1.084       .  S
C1674      C1675   1.405       .  A
C1674      H1690   1.083       .  S
C1675      C1685   1.408       .  A
C1675      C1676   1.412       .  A
C1676      C1682   1.409       .  A
C1676      C1677   1.414       .  A
C1677      C1679   1.413       .  A
C1677      C1678   1.411       .  A
C1678      C1686   1.406       .  A
C1679      C1688   1.404       .  A
C1679      C1680   1.403       .  A
C1680      C1681   1.398       .  A
C1680      H1691   1.084       .  S
C1681      C1682   1.404       .  A
C1681      H1692   1.084       .  S
C1682      C1683   1.401       .  A
C1683      C1684   1.410       .  A
C1683      H1693   1.083       .  S
C1684      C1685   1.411       .  A
C1685      H1694   1.084       .  S
C1686      C1687   1.408       .  A
C1686      H1695   1.084       .  S
C1687      C1688   1.405       .  A
C1688      H1696   1.084       .  S
C1697      C1698   1.397       .  A
C1697      C1702   1.403       .  A
C1697      H1713   1.084       .  S
C1698      C1699   1.403       .  A
C1698      H1714   1.084       .  S
C1699      C1709   1.401       .  A
C1699      C1700   1.410       .  A
C1700      C1706   1.412       .  A
C1700      C1701   1.414       .  A
C1701      C1703   1.412       .  A
C1701      C1702   1.411       .  A
C1702      C1710   1.402       .  A
C1703      C1712   1.408       .  A
C1703      C1704   1.405       .  A
C1704      C1705   1.402       .  A
C1704      H1715   1.083       .  S
C1705      C1706   1.405       .  A
C1705      H1716   1.083       .  S
C1706      C1707   1.409       .  A
C1707      C1708   1.409       .  A
C1707      H1717   1.084       .  S
C1708      C1709   1.408       .  A
C1709      H1718   1.084       .  S
C1710      C1711   1.406       .  A
C1710      H1719   1.083       .  S
C1711      C1712   1.409       .  A
C1712      H1720   1.084       .  S
C1721      C1722   1.401       .  A
C1721      C1726   1.405       .  A
C1721      H1737   1.083       .  S
C1722      C1723   1.404       .  A
C1722      H1738   1.083       .  S
C1723      C1733   1.408       .  A
C1723      C1724   1.412       .  A
C1724      C1730   1.410       .  A
C1724      C1725   1.414       .  A
C1725      C1727   1.412       .  A
C1725      C1726   1.412       .  A
C1726      C1734   1.407       .  A
C1727      C1736   1.403       .  A
C1727      C1728   1.403       .  A
C1728      C1729   1.398       .  A
C1728      H1739   1.084       .  S
C1729      C1730   1.404       .  A
C1729      H1740   1.084       .  S
C1730      C1731   1.401       .  A
C1731      C1732   1.409       .  A
C1731      H1741   1.084       .  S
C1732      C1733   1.408       .  A
C1733      H1742   1.084       .  S
C1734      C1735   1.408       .  A
C1734      H1743   1.083       .  S
C1735      C1736   1.405       .  A
C1736      H1744   1.085       .  S
C1745      C1746   1.400       .  A
C1745      C1750   1.404       .  A
C1745      H1761   1.083       .  S
C1746      C1747   1.404       .  A
C1746      H1762   1.084       .  S
C1747      C1757   1.404       .  A
C1747      C1748   1.411       .  A
C1748      C1754   1.413       .  A
C1748      C1749   1.412       .  A
C1749      C1751   1.410       .  A
C1749      C1750   1.412       .  A
C1750      C1758   1.405       .  A
C1751      C1760   1.402       .  A
C1751      C1752   1.404       .  A
C1752      C1753   1.399       .  A
C1752      H1763   1.083       .  S
C1753      C1754   1.403       .  A
C1753      H1764   1.084       .  S
C1754      C1755   1.403       .  A
C1755      C1756   1.404       .  A
C1755      H1765   1.085       .  S
C1756      C1757   1.405       .  A
C1757      H1766   1.084       .  S
C1758      C1759   1.408       .  A
C1758      H1767   1.084       .  S
C1759      C1760   1.409       .  A
C1760      H1768   1.084       .  S
C1769      C1770   1.399       .  A
C1769      C1774   1.403       .  A
C1769      H1785   1.083       .  S
C1770      C1771   1.403       .  A
C1770      H1786   1.084       .  S
C1771      C1781   1.403       .  A
C1771      C1772   1.412       .  A
C1772      C1778   1.410       .  A
C1772      C1773   1.412       .  A
C1773      C1775   1.412       .  A
C1773      C1774   1.411       .  A
C1774      C1782   1.402       .  A
C1775      C1784   1.404       .  A
C1775      C1776   1.403       .  A
C1776      C1777   1.400       .  A
C1776      H1787   1.084       .  S
C1777      C1778   1.404       .  A
C1777      H1788   1.084       .  S
C1778      C1779   1.403       .  A
C1779      C1780   1.410       .  A
C1779      H1789   1.084       .  S
C1780      C1781   1.408       .  A
C1781      H1790   1.084       .  S
C1782      C1783   1.405       .  A
C1782      H1791   1.084       .  S
C1783      C1784   1.405       .  A
C1784      H1792   1.084       .  S
C1793      C1794   1.404       .  A
C1793      C1798   1.405       .  A
C1793      H1809   1.083       .  S
C1794      C1795   1.406       .  A
C1794      H1810   1.083       .  S
C1795      C1805   1.411       .  A
C1795      C1796   1.412       .  A
C1796      C1802   1.411       .  A
C1796      C1797   1.414       .  A
C1797      C1799   1.410       .  A
C1797      C1798   1.412       .  A
C1798      C1806   1.410       .  A
C1799      C1808   1.399       .  A
C1799      C1800   1.402       .  A
C1800      C1801   1.396       .  A
C1800      H1811   1.084       .  S
C1801      C1802   1.402       .  A
C1801      H1812   1.084       .  S
C1802      C1803   1.400       .  A
C1803      C1804   1.405       .  A
C1803      H1813   1.085       .  S
C1804      C1805   1.409       .  A
C1805      H1814   1.084       .  S
C1806      C1807   1.410       .  A
C1806      H1815   1.084       .  S
C1807      C1808   1.407       .  A
C1808      H1816   1.084       .  S
C1817      C1818   1.399       .  A
C1817      C1822   1.404       .  A
C1817      H1833   1.084       .  S
C1818      C1819   1.404       .  A
C1818      H1834   1.084       .  S
C1819      C1829   1.403       .  A
C1819      C1820   1.411       .  A
C1820      C1826   1.411       .  A
C1820      C1821   1.414       .  A
C1821      C1823   1.412       .  A
C1821      C1822   1.411       .  A
C1822      C1830   1.403       .  A
C1823      C1832   1.407       .  A
C1823      C1824   1.404       .  A
C1824      C1825   1.401       .  A
C1824      H1835   1.083       .  S
C1825      C1826   1.404       .  A
C1825      H1836   1.084       .  S
C1826      C1827   1.406       .  A
C1827      C1828   1.408       .  A
C1827      H1837   1.084       .  S
C1828      C1829   1.409       .  A
C1829      H1838   1.084       .  S
C1830      C1831   1.407       .  A
C1830      H1839   1.083       .  S
C1831      C1832   1.408       .  A
C1832      H1840   1.084       .  S
C1841      C1842   1.400       .  A
C1841      C1846   1.404       .  A
C1841      H1857   1.084       .  S
C1842      C1843   1.404       .  A
C1842      H1858   1.083       .  S
C1843      C1853   1.405       .  A
C1843      C1844   1.411       .  A
C1844      C1850   1.409       .  A
C1844      C1845   1.411       .  A
C1845      C1847   1.412       .  A
C1845      C1846   1.411       .  A
C1846      C1854   1.404       .  A
C1847      C1856   1.400       .  A
C1847      C1848   1.402       .  A
C1848      C1849   1.396       .  A
C1848      H1859   1.084       .  S
C1849      C1850   1.403       .  A
C1849      H1860   1.084       .  S
C1850      C1851   1.398       .  A
C1851      C1852   1.410       .  A
C1851      H1861   1.083       .  S
C1852      C1853   1.411       .  A
C1853      H1862   1.083       .  S
C1854      C1855   1.406       .  A
C1854      H1863   1.084       .  S
C1855      C1856   1.404       .  A
C1856      H1864   1.084       .  S
C1865      C1866   1.397       .  A
C1865      C1870   1.403       .  A
C1865      H1881   1.084       .  S
C1866      C1867   1.403       .  A
C1866      H1882   1.084       .  S
C1867      C1877   1.400       .  A
C1867      C1868   1.411       .  A
C1868      C1874   1.412       .  A
C1868      C1869   1.412       .  A
C1869      C1871   1.411       .  A
C1869      C1870   1.411       .  A
C1870      C1878   1.401       .  A
C1871      C1880   1.404       .  A
C1871      C1872   1.404       .  A
C1872      C1873   1.400       .  A
C1872      H1883   1.084   1_556  S
C1873      C1874   1.404       .  A
C1873      H1884   1.083       .  S
C1874      C1875   1.406       .  A
C1875      C1876   1.407       .  A
C1875      H1885   1.084       .  S
C1876      C1877   1.405       .  A
C1877      H1886   1.084       .  S
C1878      C1879   1.407       .  A
C1878      H1887   1.084       .  S
C1879      C1880   1.409       .  A
C1880      H1888   1.084       .  S
C1889      C1890   1.398       .  A
C1889      C1894   1.403       .  A
C1889      H1905   1.084       .  S
C1890      C1891   1.404       .  A
C1890      H1906   1.084       .  S
C1891      C1901   1.401       .  A
C1891      C1892   1.411       .  A
C1892      C1898   1.412       .  A
C1892      C1893   1.412       .  A
C1893      C1895   1.412       .  A
C1893      C1894   1.412       .  A
C1894      C1902   1.402       .  A
C1895      C1904   1.404       .  A
C1895      C1896   1.404       .  A
C1896      C1897   1.400       .  A
C1896      H1907   1.083       .  S
C1897      C1898   1.403       .  A
C1897      H1908   1.084   1_556  S
C1898      C1899   1.404       .  A
C1899      C1900   1.407       .  A
C1899      H1909   1.084       .  S
C1900      C1901   1.408       .  A
C1901      H1910   1.084       .  S
C1902      C1903   1.405       .  A
C1902      H1911   1.085       .  S
C1903      C1904   1.405       .  A
C1904      H1912   1.084       .  S
