geometry optimzed in LAMMPS
_audit_creation_date              2020-12-01 
_audit_creation_method            'lammps2cif' 
_symmetry_space_group_name_H-M    'P1' 
_symmetry_Int_Tables_number       1 
_symmetry_cell_setting            triclinic 
loop_ 
_symmetry_equiv_pos_as_xyz 
  x,y,z 
_cell_length_a                    44.48629242 
_cell_length_b                    35.82576297585898 
_cell_length_c                    38.89378416587494 
_cell_angle_alpha                 90.05079233661381 
_cell_angle_beta                  89.93105554538198 
_cell_angle_gamma                 89.74569354125016 
loop_ 
_atom_site_label 
_atom_site_type_symbol 
_atom_site_fract_x 
_atom_site_fract_y 
_atom_site_fract_z 
_atom_site_charge 
N1          N  0.99005561  0.55828406  0.50039344    -0.35700
N2          N  0.48792672  0.50050532  0.44722096    -0.56300
N3          N  0.49452906  0.43974638  0.00150032    -0.35700
N4          N  0.49681715  0.49833064  0.05309908    -0.56300
C5          C  0.99675181  0.57952718  0.47262596     0.27900
C6          C  0.99574281  0.57932933  0.02831173     0.27900
C7          C  0.48604731  0.42138751  0.47247120     0.27900
C8          C  0.50088462  0.41899162  0.02965872     0.27900
C9          C  0.98546729  0.53210837  0.42735553     0.36500
C10         C  0.48131744  0.47074538  0.42728183     0.36500
C11         C  0.98609993  0.53077791  0.07279775     0.36500
C12         C  0.49321377  0.46850707  0.07397502     0.36500
C13         C  0.00529682  0.61480798  0.48362636    -0.21000
C14         C  0.00564772  0.61441455  0.01856296    -0.21000
C15         C  0.49298007  0.38522944  0.48254356    -0.21000
C16         C  0.50846421  0.38299646  0.01956256    -0.21000
C17         C  0.97656844  0.52182941  0.39450395    -0.22100
C18         C  0.47570016  0.48233813  0.39388466    -0.22100
C19         C  0.97858989  0.51956887  0.10576709    -0.22100
C20         C  0.48631806  0.48031071  0.10703095    -0.22100
C21         C  0.99273869  0.56897570  0.43776573    -0.17400
C22         C  0.98971156  0.56838167  0.06252676    -0.17400
C23         C  0.49796944  0.43092750  0.06418660    -0.17400
C24         C  0.48269793  0.43297890  0.43788838    -0.17400
H25         H  0.01111202  0.63864504  0.46796732     0.15500
H26         H  0.01041429  0.63797034  0.03509812     0.15500
H27         H  0.49676054  0.36116676  0.46624430     0.15500
H28         H  0.51408888  0.35953592  0.03586683     0.15500
H29         H  0.97341729  0.53919350  0.37212815     0.13800
H30         H  0.46989277  0.46529619  0.37191550     0.13800
H31         H  0.97278657  0.53703718  0.12751706     0.13800
H32         H  0.48281214  0.46349985  0.12973452     0.13800
H33         H  0.97974230  0.53244038  0.50011742     0.27000
H34         H  0.48493207  0.46615845  0.00126414     0.27000
C35         C  0.02080118  0.21186773  0.22590841     0.46300
H36         H  0.03647124  0.21396433  0.20385221    -0.02700
C37         C  0.48279471  0.20723908  0.27815536     0.46400
H38         H  0.46762886  0.20520922  0.30074070    -0.02700
C39         C  0.49079841  0.18822633  0.21867460    -0.16400
C40         C  0.03420417  0.19311327  0.25820607    -0.16100
C41         C  0.00860405  0.24997802  0.23745892    -0.16500
C42         C  0.47126116  0.18663255  0.24612938    -0.16500
C43         C  0.01356896  0.19031780  0.28462103    -0.16000
C44         C  0.48939250  0.24727200  0.26669268    -0.16400
O45         O  0.22098475  0.03761722  0.22174702    -0.73500
O46         O  0.28050532  0.96053879  0.22075904    -0.73600
O47         O  0.21957266  0.96189638  0.22208299    -0.73600
O48         O  0.28196552  0.03480347  0.22052665    -0.73700
O49         O  0.28257519  0.03586092  0.27796331    -0.73600
O50         O  0.22021629  0.96256344  0.27946075    -0.73600
O51         O  0.28119423  0.96055206  0.27818236    -0.73600
O52         O  0.22181540  0.03794672  0.27913142    -0.73600
Ni53       Ni  0.25058982  0.99872554  0.21923651     1.25400
Ni54       Ni  0.25142176  0.99921930  0.28076337     1.25400
C55         C  0.21165946  0.05047874  0.25059783     0.88600
C56         C  0.29123275  0.94877363  0.24926078     0.88600
C57         C  0.20960376  0.95027595  0.25103918     0.88600
C58         C  0.29307709  0.04633338  0.24890872     0.88800
C59         C  0.01800846  0.79073365  0.27671048     0.46300
H60         H  0.03328906  0.78985715  0.29925342    -0.02700
C61         C  0.48154465  0.78927820  0.22452118     0.46400
H62         H  0.46513493  0.78945037  0.20314620    -0.02700
C63         C  0.48874313  0.80791854  0.28432003    -0.16400
C64         C  0.03121751  0.81056420  0.24501958    -0.16100
C65         C  0.00846498  0.75186886  0.26415744    -0.16500
C66         C  0.46879274  0.80694073  0.25745232    -0.16500
C67         C  0.01153045  0.81223264  0.21774196    -0.16000
C68         C  0.49250674  0.75026689  0.23464436    -0.16400
C69         C  0.49132475  0.01938461  0.46850340     0.03200
C70         C  0.48863730  0.97989089  0.46848855     0.03100
C71         C  0.48836129  0.96103270  0.50016382    -0.17400
C72         C  0.48964342  0.98121775  0.03204384     0.03200
C73         C  0.49098926  0.02066673  0.03194301     0.03100
C74         C  0.49035882  0.03831419  0.50019392    -0.17400
H75         H  0.49080521  0.06858222  0.50060533     0.05200
H76         H  0.48836240  0.93079052  0.50007000     0.05200
C77         C  0.49428250  0.86387738  0.14077783     0.21200
C78         C  0.48032993  0.87089098  0.10909093    -0.38700
C79         C  0.48354265  0.90720780  0.09623098     0.20200
C80         C  0.01156541  0.93042860  0.11062369     0.22800
C81         C  0.02436511  0.92318147  0.14283864    -0.39200
C82         C  0.01889990  0.88760104  0.15623935     0.21600
N83         N  0.49465771  0.83160958  0.15824882    -0.32400
C84         C  0.01439927  0.83661693  0.18728362    -0.10000
C85         C  0.02627495  0.87262013  0.18761945    -0.28800
N86         N  0.01466269  0.96142882  0.09166928    -0.45400
C87         C  0.48783618  0.95780902  0.06391017    -0.04700
C88         C  0.47526386  0.92201060  0.06501744    -0.22000
H89         H  0.46849779  0.84938400  0.09507050     0.19800
H90         H  0.03744764  0.94379195  0.15653644     0.18600
H91         H  0.03699847  0.88696285  0.20876857     0.14800
H92         H  0.46328061  0.90760229  0.04481163     0.14700
H93         H  0.48442284  0.80670768  0.15079179     0.32900
H94         H  0.02886465  0.98342890  0.09755236     0.35600
C95         C  0.47553002  0.86429992  0.35894370     0.21200
C96         C  0.46314532  0.87444303  0.39078559    -0.38700
C97         C  0.47358328  0.90812501  0.40471653     0.20200
C98         C  0.00122000  0.93251834  0.38790794     0.22800
C99         C  0.01042717  0.92372925  0.35432890    -0.39200
C100        C  0.99847159  0.89071547  0.34057714     0.21600
N101        N  0.47001658  0.83316428  0.34068963    -0.32400
C102        C  0.48703478  0.83612999  0.31194011    -0.10000
C103        C  0.00354066  0.87361473  0.30945063    -0.28800
N104        N  0.01056074  0.96109689  0.40768733    -0.45400
C105        C  0.48561095  0.95635586  0.43720266    -0.04700
C106        C  0.46701962  0.92501928  0.43550712    -0.22000
H107        H  0.44688079  0.85718430  0.40395306     0.19800
H108        H  0.02612990  0.94089533  0.34020437     0.18600
H109        H  0.01759561  0.88344465  0.28864439     0.14800
H110        H  0.45158557  0.91507721  0.45495922     0.16300
H111        H  0.45620635  0.81096623  0.34776488     0.32900
H112        H  0.02703663  0.98065850  0.40151540     0.35600
C113        C  0.10012005  0.85702571  0.26508115     0.21200
C114        C  0.11990443  0.87772862  0.28554131    -0.38700
C115        C  0.14522234  0.89187807  0.26863572     0.20200
C116        C  0.15038499  0.88600055  0.23392998     0.22800
C117        C  0.13071097  0.86494551  0.21351357    -0.39200
C118        C  0.10538025  0.85072521  0.23048589     0.21600
N119        N  0.07361142  0.84264945  0.27464040    -0.32400
C120        C  0.06155601  0.82752295  0.24587433    -0.10000
C121        C  0.08108452  0.83128302  0.21792483    -0.28800
N122        N  0.17470317  0.90499224  0.22344525    -0.45400
C123        C  0.18500992  0.92306397  0.25168684    -0.04700
C124        C  0.16742568  0.91522296  0.28044562    -0.22000
H125        H  0.11541159  0.88340560  0.31240445     0.19800
H126        H  0.13433069  0.86099044  0.18622539     0.18600
H127        H  0.07757297  0.82211586  0.19172294     0.14800
H128        H  0.16959906  0.92673885  0.30605738     0.14700
H129        H  0.06390808  0.84431903  0.29904931     0.32900
H130        H  0.18310417  0.90665563  0.19840285     0.35600
C131        C  0.35108558  0.88556850  0.26620652     0.21200
C132        C  0.36916853  0.86177451  0.28594330    -0.38700
C133        C  0.39612557  0.85055165  0.27044956     0.20200
C134        C  0.40448355  0.86228931  0.23792103     0.22800
C135        C  0.38633399  0.88583759  0.21806699    -0.39200
C136        C  0.35923625  0.89675688  0.23341083     0.21600
N137        N  0.32510349  0.90166473  0.27571821    -0.32400
C138        C  0.31660801  0.92284636  0.24859976    -0.10000
C139        C  0.33716471  0.92036370  0.22165630    -0.28800
N140        N  0.43139024  0.84824452  0.22931664    -0.45400
C141        C  0.44021495  0.82756020  0.25662540    -0.04700
C142        C  0.41870529  0.82795328  0.28263678    -0.22000
H143        H  0.36291555  0.85307247  0.31160787     0.19800
H144        H  0.39294486  0.89521957  0.19272181     0.18600
H145        H  0.33680215  0.93539810  0.19752614     0.14800
H146        H  0.41906325  0.81309653  0.30676914     0.14700
H147        H  0.31425636  0.89920258  0.29943981     0.32900
H148        H  0.44317899  0.85287157  0.20648115     0.35600
C149        C  0.00751229  0.12425156  0.14996481     0.21200
C150        C  0.02460987  0.09727330  0.13271887    -0.38700
C151        C  0.00970703  0.07809901  0.10662682     0.20200
C152        C  0.47495940  0.08656938  0.09819336     0.22800
C153        C  0.45813928  0.11353697  0.11636414    -0.39200
C154        C  0.47390676  0.13315873  0.14190732     0.21600
N155        N  0.01611436  0.14421683  0.17717729    -0.32400
C156        C  0.48927533  0.16553186  0.18689694    -0.10000
C157        C  0.46437390  0.15957489  0.16563879    -0.28800
N158        N  0.46548414  0.06396515  0.07284731    -0.45400
C159        C  0.48992573  0.04370784  0.06320401    -0.04700
C160        C  0.02025476  0.05138627  0.08432565    -0.22000
H161        H  0.04776715  0.09139067  0.13940467     0.19800
H162        H  0.43451093  0.11838434  0.11140787     0.18600
H163        H  0.44201592  0.17122099  0.16842820     0.14800
H164        H  0.04326347  0.04187577  0.08159356     0.14700
H165        H  0.03636171  0.14134853  0.19028576     0.32900
H166        H  0.44405797  0.06321019  0.06192427     0.35600
C167        C  0.50169766  0.11206994  0.34081061     0.21200
C168        C  0.48750759  0.07923189  0.35192890    -0.38700
C169        C  0.49347222  0.06855851  0.38595947     0.20200
C170        C  0.01542336  0.09280889  0.40859261     0.22800
C171        C  0.02664723  0.12736358  0.39765880    -0.39200
C172        C  0.01978138  0.13729203  0.36374996     0.21600
N173        N  0.49906025  0.12860148  0.31003072    -0.32400
C174        C  0.01502364  0.16278467  0.31267547    -0.10000
C175        C  0.02644426  0.16916939  0.34548214    -0.28800
N176        N  0.01897618  0.07710747  0.43954972    -0.45400
C177        C  0.49645093  0.04263375  0.43739737    -0.04700
C178        C  0.48264158  0.03911620  0.40526766    -0.22000
H179        H  0.47268129  0.06342778  0.33542171     0.19800
H180        H  0.03967211  0.14523106  0.41437552     0.18600
H181        H  0.03793926  0.19380131  0.35466096     0.14800
H182        H  0.46629680  0.01858143  0.39732122     0.14700
H183        H  0.48606546  0.11947868  0.28934343     0.32900
H184        H  0.03150672  0.08798295  0.45989692     0.35600
C185        C  0.41081902  0.12163182  0.23867197     0.21200
C186        C  0.39540277  0.09108695  0.22515978    -0.38700
C187        C  0.36574370  0.08721032  0.23631805     0.20200
C188        C  0.35272417  0.11095419  0.26027129     0.22800
C189        C  0.36805949  0.14201518  0.27338487    -0.39200
C190        C  0.39746916  0.14672768  0.26109447     0.21600
N191        N  0.43907278  0.13160233  0.23151374    -0.32400
C192        C  0.44332627  0.16454547  0.24781859    -0.10000
C193        C  0.41809418  0.17445463  0.26722450    -0.28800
N194        N  0.32468555  0.09981080  0.26791158    -0.45400
C195        C  0.31986084  0.06954539  0.24779633    -0.04700
C196        C  0.34477703  0.06096034  0.22768519    -0.22000
H197        H  0.40563493  0.07203695  0.20691678     0.19800
H198        H  0.35780390  0.16120467  0.29147661     0.18600
H199        H  0.41503704  0.19899912  0.28311423     0.14800
H200        H  0.34751867  0.03772042  0.21012797     0.14700
H201        H  0.45454507  0.11597595  0.21731569     0.32900
H202        H  0.30982273  0.11190784  0.28554324     0.35600
C203        C  0.10648176  0.15213359  0.23897258     0.21200
C204        C  0.12875572  0.13632727  0.21783196    -0.38700
C205        C  0.15168360  0.11689897  0.23501574     0.20200
C206        C  0.15254057  0.11406028  0.27051602     0.22800
C207        C  0.13041353  0.13010511  0.29153917    -0.39200
C208        C  0.10728133  0.14888465  0.27429316     0.21600
N209        N  0.08121987  0.16959432  0.22898466    -0.32400
C210        C  0.06510557  0.17643732  0.25808379    -0.10000
C211        C  0.08138135  0.16473489  0.28688400    -0.28800
N212        N  0.17503301  0.09155776  0.28051376    -0.45400
C213        C  0.18832683  0.07947738  0.25119418    -0.04700
C214        C  0.17467824  0.09502379  0.22225097    -0.22000
H215        H  0.12758094  0.13761327  0.19006127     0.19800
H216        H  0.13046056  0.12672760  0.31919381     0.18600
H217        H  0.07569522  0.16704859  0.31363440     0.14800
H218        H  0.17973747  0.08931584  0.19552511     0.14700
H219        H  0.07554825  0.17573663  0.20362589     0.32900
H220        H  0.17993913  0.08326753  0.30564317     0.35600
C221        C  0.49259021  0.32518669  0.18215125     0.21200
C222        C  0.47384619  0.34881299  0.16309256    -0.38700
C223        C  0.48759220  0.36749540  0.13578875     0.20200
C224        C  0.01529307  0.36252234  0.12472212     0.22800
C225        C  0.03422192  0.33731707  0.14210210    -0.39200
C226        C  0.02126289  0.31872340  0.17021812     0.21600
N227        N  0.48429400  0.30263838  0.20786753    -0.32400
C228        C  0.00930305  0.28251673  0.21399364    -0.10000
C229        C  0.03271076  0.29126910  0.19147136    -0.28800
N230        N  0.02231189  0.38446139  0.09786360    -0.45400
C231        C  0.99687100  0.40380634  0.09030540    -0.04700
C232        C  0.47560823  0.39209752  0.11242205    -0.22000
H233        H  0.45014793  0.35196384  0.16879392     0.19800
H234        H  0.05725619  0.33244562  0.13424673     0.18600
H235        H  0.05464114  0.27818397  0.18988294     0.14800
H236        H  0.45261991  0.40199208  0.11101347     0.14700
H237        H  0.46256443  0.29925987  0.21756714     0.32900
H238        H  0.04322914  0.38672666  0.08583102     0.35600
C239        C  0.99130629  0.33120617  0.31662813     0.21200
C240        C  0.00457573  0.36357693  0.32981842    -0.38700
C241        C  0.99306749  0.37628891  0.36123294     0.20200
C242        C  0.47101388  0.35684510  0.37966820     0.22800
C243        C  0.45685556  0.32531619  0.36575513    -0.39200
C244        C  0.46905177  0.31191514  0.33479159     0.21600
N245        N  0.00007174  0.31198302  0.28874198    -0.32400
C246        C  0.48318637  0.27982104  0.28910334    -0.10000
C247        C  0.46211708  0.28065015  0.31576458    -0.28800
N248        N  0.46350712  0.37548671  0.40844678    -0.45400
C249        C  0.48336773  0.40397527  0.41071271    -0.04700
C250        C  0.00136225  0.40633105  0.38094525    -0.22000
H251        H  0.02298035  0.37741793  0.31690028     0.19800
H252        H  0.43797905  0.31201781  0.37825279     0.18600
H253        H  0.44521488  0.26003007  0.32176170     0.14800
H254        H  0.01870270  0.42652856  0.37529700     0.14700
H255        H  0.01846863  0.31834739  0.27315982     0.32900
H256        H  0.44569358  0.36973162  0.42511226     0.35600
C257        C  0.99715464  0.67191891  0.18234631     0.21200
C258        C  0.01242306  0.64143446  0.16791176    -0.38700
C259        C  0.00066179  0.62786904  0.13700754     0.20200
C260        C  0.48023811  0.64053033  0.12087321     0.22800
C261        C  0.46411219  0.67035973  0.13548677    -0.39200
C262        C  0.47525521  0.68389573  0.16684808     0.21600
N263        N  0.00515131  0.69125572  0.21039025    -0.32400
C264        C  0.48777636  0.71698169  0.21252815    -0.10000
C265        C  0.46677573  0.71463532  0.18591569    -0.28800
N266        N  0.47420815  0.62250996  0.09135528    -0.45400
C267        C  0.49562911  0.59568337  0.08845461    -0.04700
C268        C  0.00996585  0.59844909  0.11692638    -0.22000
H269        H  0.03221533  0.62936702  0.17973623     0.19800
H270        H  0.44472934  0.68265303  0.12299754     0.18600
H271        H  0.44899962  0.73417676  0.17971255     0.14800
H272        H  0.02858162  0.57960851  0.12169118     0.14700
H273        H  0.02439719  0.68675264  0.22519276     0.32900
H274        H  0.45612326  0.62726172  0.07480032     0.35600
C275        C  0.01480948  0.63863260  0.37621375     0.21200
C276        C  0.03406477  0.66351312  0.35900074    -0.38700
C277        C  0.02148193  0.68226546  0.33064441     0.20200
C278        C  0.49168819  0.67780481  0.32168784     0.22800
C279        C  0.47200513  0.65477013  0.34004173    -0.39200
C280        C  0.48490972  0.63445530  0.36700434     0.21600
N281        N  0.02121780  0.61682519  0.40343956    -0.32400
C282        C  0.99544064  0.59824431  0.41078352    -0.10000
C283        C  0.47216767  0.60924337  0.38927185    -0.28800
N284        N  0.48470990  0.70033866  0.29539705    -0.45400
C285        C  0.00965541  0.71904323  0.28713788    -0.04700
C286        C  0.03289414  0.71018311  0.30989208    -0.22000
H287        H  0.05694259  0.66825886  0.36730818     0.19800
H288        H  0.44837434  0.65276867  0.33373112     0.18600
H289        H  0.44895188  0.60037802  0.39013105     0.14800
H290        H  0.05454917  0.72361812  0.31206880     0.14700
H291        H  0.04193710  0.61412601  0.41581851     0.32900
H292        H  0.46337547  0.70459351  0.28485935     0.35600
N293        N  0.99196135  0.55784836  0.00005893    -0.35700
N294        N  0.49690724  0.49652385  0.94736907    -0.56300
N295        N  0.48302193  0.44324259  0.50066666    -0.35700
N296        N  0.48991889  0.50087355  0.55306434    -0.56300
C297        C  0.99981201  0.57859450  0.97242847     0.27900
C298        C  0.99468557  0.57931021  0.52875498     0.27900
C299        C  0.49866327  0.41770639  0.97367690     0.27900
C300        C  0.48892963  0.42167646  0.52847010     0.27900
C301        C  0.99108078  0.53033185  0.92732453     0.36500
C302        C  0.49152319  0.46596778  0.92792774     0.36500
C303        C  0.98511941  0.53048447  0.57347181     0.36500
C304        C  0.48548385  0.47104274  0.57372736     0.36500
C305        C  0.00822459  0.61396711  0.98330147    -0.21000
C306        C  0.00402103  0.61464093  0.51897507    -0.21000
C307        C  0.50706945  0.38219640  0.98424407    -0.21000
C308        C  0.49467339  0.38537503  0.51779171    -0.21000
C309        C  0.98297482  0.51946076  0.89437449    -0.22100
C310        C  0.48531346  0.47653780  0.89439921    -0.22100
C311        C  0.97832833  0.51949312  0.60674218    -0.22100
C312        C  0.48062775  0.48283146  0.60724944    -0.22100
C313        C  0.99681512  0.56751085  0.93767218    -0.17400
C314        C  0.98962211  0.56798255  0.56313937    -0.17400
C315        C  0.48790683  0.43331692  0.56326860    -0.17400
C316        C  0.49438897  0.42849924  0.93907457    -0.17400
H317        H  0.01494686  0.63736195  0.96754430     0.15500
H318        H  0.00911031  0.63806107  0.53554385     0.15500
H319        H  0.51174461  0.35815754  0.96819945     0.15500
H320        H  0.49956144  0.36130153  0.53362793     0.15500
H321        H  0.97917595  0.53671764  0.87203136     0.13800
H322        H  0.48018379  0.45876396  0.87270399     0.13800
H323        H  0.97414812  0.53703949  0.62890227     0.13800
H324        H  0.47702702  0.46597702  0.62989813     0.13800
H325        H  0.98140529  0.53208959  0.99948905     0.27000
H326        H  0.47483856  0.47037316  0.50096479     0.27000
C327        C  0.02218491  0.21136033  0.72562749     0.46300
H328        H  0.03778696  0.21314289  0.70349192    -0.02700
C329        C  0.48235590  0.20857218  0.77628558     0.46400
H330        H  0.46694030  0.20725097  0.79870186    -0.02700
C331        C  0.49064303  0.18823612  0.71726643    -0.16400
C332        C  0.03592486  0.19345329  0.75821306    -0.16100
C333        C  0.00958359  0.24951508  0.73644722    -0.16500
C334        C  0.47095533  0.18723605  0.74458230    -0.16500
C335        C  0.01544627  0.19103975  0.78478068    -0.16000
C336        C  0.48932494  0.24825504  0.76407497    -0.16400
O337        O  0.22178896  0.03587188  0.72280463    -0.73500
O338        O  0.27982448  0.95706271  0.72181588    -0.73600
O339        O  0.21897024  0.96017293  0.72367065    -0.73600
O340        O  0.28292292  0.03136858  0.72131916    -0.73700
O341        O  0.28352335  0.03284954  0.77872313    -0.73600
O342        O  0.22007245  0.96084314  0.78102424    -0.73600
O343        O  0.28111435  0.95746205  0.77920675    -0.73600
O344        O  0.22264732  0.03627260  0.78017227    -0.73600
Ni345      Ni  0.25070359  0.99614369  0.72037043     1.25400
Ni346      Ni  0.25182536  0.99687247  0.78185480     1.25400
C347        C  0.21258382  0.04895160  0.75162262     0.88600
C348        C  0.29064232  0.94515705  0.75021447     0.88600
C349        C  0.20906946  0.94871751  0.75274238     0.88600
C350        C  0.29425053  0.04287985  0.74963407     0.88800
C351        C  0.01683190  0.78943810  0.77795899     0.46300
H352        H  0.03181973  0.78837238  0.80075245    -0.02700
C353        C  0.48355490  0.79040106  0.72431360     0.46400
H354        H  0.46706413  0.79060797  0.70306102    -0.02700
C355        C  0.49167961  0.81112598  0.78320314    -0.16400
C356        C  0.03043136  0.80932479  0.74655235    -0.16100
C357        C  0.00742887  0.75067234  0.76508493    -0.16500
C358        C  0.47162128  0.81034985  0.75647066    -0.16500
C359        C  0.01103790  0.81106567  0.71900459    -0.16000
C360        C  0.49241046  0.75110629  0.73601760    -0.16400
C361        C  0.49428946  0.02131419  0.96887842     0.03200
C362        C  0.49151665  0.98183324  0.96855336     0.03100
C363        C  0.48995280  0.96274536  0.00015225    -0.17400
C364        C  0.48914635  0.97985924  0.53181696     0.03200
C365        C  0.48899408  0.01931538  0.53159266     0.03100
C366        C  0.49344047  0.03985517  0.00073222    -0.17400
H367        H  0.49432083  0.07009351  0.00146530     0.05200
H368        H  0.48973399  0.93254682  0.99977290     0.05200
C369        C  0.49814253  0.86198615  0.63929880     0.21200
C370        C  0.48179258  0.87046173  0.60950428    -0.38700
C371        C  0.48626127  0.90622407  0.59599615     0.20200
C372        C  0.00861012  0.93086121  0.61331342     0.22800
C373        C  0.02026221  0.92427848  0.64627729    -0.39200
C374        C  0.01614179  0.88813080  0.65912178     0.21600
N375        N  0.49698862  0.83031955  0.65756302    -0.32400
C376        C  0.01383679  0.83604831  0.68899566    -0.10000
C377        C  0.02380743  0.87291554  0.69040043    -0.28800
N378        N  0.01181238  0.96182098  0.59427694    -0.45400
C379        C  0.48962059  0.95668622  0.56364735    -0.04700
C380        C  0.47516691  0.92224355  0.56652651    -0.22000
H381        H  0.46677923  0.85057699  0.59761896     0.19800
H382        H  0.03198458  0.94558924  0.66066776     0.18600
H383        H  0.03354950  0.88736495  0.71211647     0.14800
H384        H  0.45997894  0.90950341  0.54828261     0.14700
H385        H  0.48411003  0.80691522  0.65156376     0.32900
H386        H  0.02487009  0.98448197  0.60125928     0.35600
C387        C  0.48034888  0.86676075  0.85843174     0.21200
C388        C  0.46810453  0.87652147  0.89033534    -0.38700
C389        C  0.47827865  0.91017681  0.90432584     0.20200
C390        C  0.00076415  0.93194616  0.88841098     0.22800
C391        C  0.01088597  0.92198663  0.85544094    -0.39200
C392        C  0.99869116  0.88901152  0.84181995     0.21600
N393        N  0.47446211  0.83592606  0.84002031    -0.32400
C394        C  0.49072079  0.83930656  0.81082924    -0.10000
C395        C  0.00354626  0.87172059  0.81072556    -0.28800
N396        N  0.00941563  0.96136214  0.90761395    -0.45400
C397        C  0.48935543  0.95845367  0.93701902    -0.04700
C398        C  0.47116437  0.92685218  0.93495331    -0.22000
H399        H  0.45188241  0.85910936  0.90339749     0.19800
H400        H  0.02703824  0.93861477  0.84143455     0.18600
H401        H  0.01804100  0.88101513  0.79010935     0.14800
H402        H  0.45549815  0.91663108  0.95403391     0.16300
H403        H  0.46079767  0.81364708  0.84724534     0.32900
H404        H  0.02606343  0.98074535  0.90155854     0.35600
C405        C  0.09981709  0.85452017  0.76729021     0.21200
C406        C  0.11971661  0.87504049  0.78784955    -0.38700
C407        C  0.14481406  0.88978109  0.77083009     0.20200
C408        C  0.14971636  0.88436701  0.73601305     0.22800
C409        C  0.12997432  0.86349777  0.71555521    -0.39200
C410        C  0.10479074  0.84897720  0.73253575     0.21600
N411        N  0.07326658  0.84011471  0.77675917    -0.32400
C412        C  0.06088278  0.82596445  0.74771863    -0.10000
C413        C  0.08024649  0.83024984  0.71972849    -0.28800
N414        N  0.17380153  0.90371317  0.72540610    -0.45400
C415        C  0.18428311  0.92165815  0.75361579    -0.04700
C416        C  0.16698591  0.91334270  0.78254801    -0.22000
H417        H  0.11538113  0.88031866  0.81481457     0.19800
H418        H  0.13334403  0.86009000  0.68816462     0.18600
H419        H  0.07648098  0.82190642  0.69334280     0.14800
H420        H  0.16937708  0.92456265  0.80824398     0.14700
H421        H  0.06370796  0.84130560  0.80126469     0.32900
H422        H  0.18198084  0.90561934  0.70028386     0.35600
C423        C  0.35108424  0.88234586  0.76629066     0.21200
C424        C  0.37066927  0.86071332  0.78629277    -0.38700
C425        C  0.39757121  0.85019882  0.77020074     0.20200
C426        C  0.40439250  0.86028426  0.73675516     0.22800
C427        C  0.38463878  0.88138743  0.71655355    -0.39200
C428        C  0.35773433  0.89190218  0.73262385     0.21600
N429        N  0.32538476  0.89869257  0.77655805    -0.32400
C430        C  0.31563766  0.91854908  0.74911885    -0.10000
C431        C  0.33500311  0.91469224  0.72115389    -0.28800
N432        N  0.43177454  0.84784791  0.72787662    -0.45400
C433        C  0.44249388  0.82992190  0.75596454    -0.04700
C434        C  0.42165567  0.83037651  0.78271143    -0.22000
H435        H  0.36574903  0.85357294  0.81273702     0.19800
H436        H  0.39014680  0.88981884  0.69058633     0.18600
H437        H  0.33371754  0.92882326  0.69660353     0.14800
H438        H  0.42331103  0.81712343  0.80753402     0.14700
H439        H  0.31579274  0.89772390  0.80106843     0.32900
H440        H  0.44261698  0.85168194  0.70430799     0.35600
C441        C  0.00897833  0.12375457  0.64992513     0.21200
C442        C  0.02589368  0.09656374  0.63277062    -0.38700
C443        C  0.01100893  0.07784286  0.60641352     0.20200
C444        C  0.47302676  0.08552858  0.59785678     0.22800
C445        C  0.45669165  0.11343496  0.61549391    -0.39200
C446        C  0.47268433  0.13271457  0.64114431     0.21600
N447        N  0.01751496  0.14319805  0.67748427    -0.32400
C448        C  0.48873557  0.16537826  0.68568287    -0.10000
C449        C  0.46370542  0.15987970  0.66447214    -0.28800
N450        N  0.46356483  0.06346636  0.57205607    -0.45400
C451        C  0.48771252  0.04226043  0.56299196    -0.04700
C452        C  0.02142221  0.05092465  0.58429392    -0.22000
H453        H  0.04888280  0.09012137  0.63977512     0.19800
H454        H  0.43331939  0.11935940  0.60995213     0.18600
H455        H  0.44162426  0.17238065  0.66702912     0.14800
H456        H  0.04426409  0.04065561  0.58201653     0.14700
H457        H  0.03762286  0.13992220  0.69084336     0.32900
H458        H  0.44242548  0.06376671  0.56039848     0.35600
C459        C  0.50109206  0.11470294  0.84120382     0.21200
C460        C  0.48769814  0.08145049  0.85255534    -0.38700
C461        C  0.49396015  0.07125241  0.88663711     0.20200
C462        C  0.01258366  0.09516053  0.90934010     0.22800
C463        C  0.02435700  0.12949904  0.89866505    -0.39200
C464        C  0.01902532  0.13889152  0.86431062     0.21600
N465        N  0.49858315  0.13045863  0.81006835    -0.32400
C466        C  0.01671680  0.16343995  0.81268533    -0.10000
C467        C  0.02695992  0.17020983  0.84591944    -0.28800
N468        N  0.01557939  0.07943029  0.94030157    -0.45400
C469        C  0.49843929  0.04508710  0.93785496    -0.04700
C470        C  0.48441381  0.04109696  0.90588836    -0.22000
H471        H  0.47349891  0.06477142  0.83605661     0.19800
H472        H  0.03697073  0.14738338  0.91577864     0.18600
H473        H  0.03822444  0.19488648  0.85536879     0.14800
H474        H  0.46880767  0.01969209  0.89795405     0.14700
H475        H  0.48613205  0.12046672  0.78928342     0.32900
H476        H  0.02776112  0.09033839  0.96091039     0.35600
C477        C  0.41168839  0.12008261  0.73878169     0.21200
C478        C  0.39701670  0.08830560  0.72647658    -0.38700
C479        C  0.36733028  0.08388989  0.73756708     0.20200
C480        C  0.35362843  0.10839871  0.76033116     0.22800
C481        C  0.36827859  0.14049476  0.77240155    -0.39200
C482        C  0.39769906  0.14563296  0.76023190     0.21600
N483        N  0.43969522  0.13089904  0.73121773    -0.32400
C484        C  0.44323579  0.16457742  0.74652237    -0.10000
C485        C  0.41770915  0.17432524  0.76550174    -0.28800
N486        N  0.32554006  0.09713575  0.76766890    -0.45400
C487        C  0.32127934  0.06593831  0.74859421    -0.04700
C488        C  0.34673126  0.05684324  0.72948332    -0.22000
H489        H  0.40775216  0.06883930  0.70899949     0.19800
H490        H  0.35744930  0.16022864  0.78953658     0.18600
H491        H  0.41409329  0.19932329  0.78062413     0.14800
H492        H  0.34994445  0.03304318  0.71268397     0.14700
H493        H  0.45550301  0.11542243  0.71735576     0.32900
H494        H  0.31017316  0.10993367  0.78428962     0.35600
C495        C  0.10828980  0.15231510  0.73945823     0.21200
C496        C  0.13045377  0.13603970  0.71843986    -0.38700
C497        C  0.15320610  0.11637213  0.73573164     0.20200
C498        C  0.15402050  0.11372842  0.77123928     0.22800
C499        C  0.13202966  0.13030471  0.79216624    -0.39200
C500        C  0.10905401  0.14935356  0.77481499     0.21600
N501        N  0.08302573  0.16969670  0.72929459    -0.32400
C502        C  0.06690048  0.17690390  0.75830433    -0.10000
C503        C  0.08311907  0.16541066  0.78725189    -0.28800
N504        N  0.17626469  0.09084613  0.78134595    -0.45400
C505        C  0.18947879  0.07836408  0.75210345    -0.04700
C506        C  0.17597306  0.09399984  0.72308736    -0.22000
H507        H  0.12926705  0.13708528  0.69066142     0.19800
H508        H  0.13200626  0.12704330  0.81983208     0.18600
H509        H  0.07716612  0.16774124  0.81396866     0.14800
H510        H  0.18096340  0.08805620  0.69638754     0.14700
H511        H  0.07719696  0.17526785  0.70386463     0.32900
H512        H  0.18106607  0.08260615  0.80651423     0.35600
C513        C  0.48907884  0.32521140  0.67994701     0.21200
C514        C  0.46946690  0.35013424  0.66349694    -0.38700
C515        C  0.48125752  0.36868969  0.63490209     0.20200
C516        C  0.00993825  0.36020800  0.62174732     0.22800
C517        C  0.02937816  0.33410295  0.63713896    -0.39200
C518        C  0.01822020  0.31630435  0.66664253     0.21600
N519        N  0.48267222  0.30315203  0.70672439    -0.32400
C520        C  0.00903407  0.28139680  0.71216062    -0.10000
C521        C  0.03068468  0.28878145  0.68705136    -0.28800
N522        N  0.01558531  0.38195642  0.59437337    -0.45400
C523        C  0.99040977  0.40280785  0.58952675    -0.04700
C524        C  0.46823187  0.39476920  0.61359139    -0.22000
H525        H  0.44661554  0.35457344  0.67222833     0.19800
H526        H  0.05154816  0.32818200  0.62696244     0.18600
H527        H  0.05212977  0.27495465  0.68341202     0.14800
H528        H  0.44564612  0.40601241  0.61510550     0.14700
H529        H  0.46193084  0.30104227  0.71918072     0.32900
H530        H  0.03556693  0.38320146  0.58029433     0.35600
C531        C  0.99587591  0.33041256  0.81626611     0.21200
C532        C  0.01082138  0.36144832  0.82983903    -0.38700
C533        C  0.00040685  0.37416896  0.86175091     0.20200
C534        C  0.47854996  0.35497305  0.87979732     0.22800
C535        C  0.46192045  0.32603270  0.86479159    -0.39200
C536        C  0.47255821  0.31318044  0.83291835     0.21600
N537        N  0.00356393  0.31106194  0.78804924    -0.32400
C538        C  0.48444023  0.28118006  0.78640460    -0.10000
C539        C  0.46369319  0.28313240  0.81331814    -0.28800
N540        N  0.47281742  0.37271213  0.90955057    -0.45400
C541        C  0.49445924  0.39901611  0.91243797    -0.04700
C542        C  0.01020587  0.40329129  0.88177367    -0.22000
H543        H  0.02968176  0.37422965  0.81684888     0.19800
H544        H  0.44251705  0.31395415  0.87729271     0.18600
H545        H  0.44603694  0.26353021  0.81937761     0.14800
H546        H  0.02805577  0.42272840  0.87594320     0.14700
H547        H  0.02209059  0.31637184  0.77231360     0.32900
H548        H  0.45467113  0.36834646  0.92611187     0.35600
C549        C  0.99595381  0.67016790  0.68391038     0.21200
C550        C  0.01127881  0.63959581  0.66970349    -0.38700
C551        C  0.00020783  0.62664405  0.63825092     0.20200
C552        C  0.47747702  0.64208028  0.62262308     0.22800
C553        C  0.46127424  0.67123604  0.63823429    -0.39200
C554        C  0.47322635  0.68472093  0.66920139     0.21600
N555        N  0.00370558  0.68941275  0.71206830    -0.32400
C556        C  0.48699037  0.71779380  0.71432660    -0.10000
C557        C  0.46503021  0.71518776  0.68879181    -0.28800
N558        N  0.47078719  0.62419058  0.59326079    -0.45400
C559        C  0.49260389  0.59805417  0.58918237    -0.04700
C560        C  0.00973550  0.59739383  0.61807234    -0.22000
H561        H  0.03068979  0.62714872  0.68201243     0.19800
H562        H  0.44127631  0.68312389  0.62671440     0.18600
H563        H  0.44688082  0.73454061  0.68352389     0.14800
H564        H  0.02797150  0.57811127  0.62324619     0.14700
H565        H  0.02273978  0.68461987  0.72714045     0.32900
H566        H  0.45203269  0.62850615  0.57760361     0.35600
C567        C  0.01722128  0.63609060  0.87495716     0.21200
C568        C  0.03601879  0.66066395  0.85686918    -0.38700
C569        C  0.02249074  0.67972154  0.82935123     0.20200
C570        C  0.49562363  0.67323685  0.81962411     0.22800
C571        C  0.47734334  0.64660884  0.83567249    -0.39200
C572        C  0.49004474  0.62835390  0.86402739     0.21600
N573        N  0.02443176  0.61455332  0.90203696    -0.32400
C574        C  0.99877168  0.59648919  0.91065010    -0.10000
C575        C  0.47824196  0.60144950  0.88532348    -0.28800
N576        N  0.48821291  0.69524335  0.79305839    -0.45400
C577        C  0.00916751  0.71756556  0.78744609    -0.04700
C578        C  0.03326078  0.70794982  0.80862321    -0.22000
H579        H  0.05919856  0.66519423  0.86412291     0.19800
H580        H  0.45477260  0.64075769  0.82687736     0.18600
H581        H  0.45603814  0.58929726  0.88403023     0.14800
H582        H  0.05505804  0.72116499  0.80991592     0.14700
H583        H  0.04552038  0.61174413  0.91355253     0.32900
H584        H  0.46748018  0.69600035  0.78049060     0.35600
N585        N  0.49136424  0.55815761  0.49970951    -0.35700
N586        N  0.98787168  0.50134652  0.44741529    -0.56300
N587        N  0.99217770  0.44280773  0.00044223    -0.35700
N588        N  0.99232330  0.50060552  0.05305060    -0.56300
C589        C  0.49719830  0.57914139  0.47158003     0.27900
C590        C  0.50018834  0.57681878  0.02698982     0.27900
C591        C  0.98671609  0.42191578  0.47164975     0.27900
C592        C  0.99897145  0.42189359  0.02840061     0.27900
C593        C  0.48659561  0.53090606  0.42663266     0.36500
C594        C  0.98008499  0.47190701  0.42758311     0.36500
C595        C  0.49179008  0.52892115  0.07265688     0.36500
C596        C  0.98884758  0.47025968  0.07335585     0.36500
C597        C  0.50529322  0.61480607  0.48194175    -0.21000
C598        C  0.50895519  0.61208382  0.01652875    -0.21000
C599        C  0.99436988  0.38581759  0.48114329    -0.21000
C600        C  0.00768525  0.38643558  0.01771440    -0.21000
C601        C  0.47949888  0.52021358  0.39334578    -0.22100
C602        C  0.97254781  0.48403334  0.39490450    -0.22100
C603        C  0.48494900  0.51843141  0.10606290    -0.22100
C604        C  0.98081743  0.48144247  0.10630664    -0.22100
C605        C  0.49321634  0.56792236  0.43692601    -0.17400
C606        C  0.49543941  0.56623912  0.06164657    -0.17400
C607        C  0.99490453  0.43292987  0.06316367    -0.17400
C608        C  0.98230783  0.43393087  0.43734003    -0.17400
H609        H  0.51054557  0.63849173  0.46581638     0.15500
H610        H  0.51370916  0.63597362  0.03265024     0.15500
H611        H  0.99837233  0.36212566  0.46445485     0.15500
H612        H  0.01370211  0.36279684  0.03358505     0.15500
H613        H  0.47743120  0.53759845  0.37076443     0.13800
H614        H  0.96541517  0.46735569  0.37321765     0.13800
H615        H  0.47991914  0.53630991  0.12777005     0.13800
H616        H  0.97726226  0.46435087  0.12879159     0.13800
H617        H  0.48171571  0.53196615  0.49987680     0.27000
H618        H  0.98163978  0.46869432  0.00056865     0.27000
C619        C  0.51908483  0.21125142  0.22606790     0.46300
H620        H  0.53412353  0.21355256  0.20344882    -0.02700
C621        C  0.98299143  0.20798895  0.27657215     0.46400
H622        H  0.96707491  0.20571988  0.29844046    -0.02700
C623        C  0.99274991  0.18883931  0.21752403    -0.16400
C624        C  0.53334311  0.19270629  0.25789810    -0.16100
C625        C  0.50742914  0.24915211  0.23825487    -0.16500
C626        C  0.97232550  0.18741027  0.24405962    -0.16500
C627        C  0.51353562  0.18953857  0.28508390    -0.16000
C628        C  0.98997932  0.24813933  0.26553190    -0.16400
O629        O  0.72102514  0.03969720  0.21737415    -0.73500
O630        O  0.77868930  0.96033668  0.21860960    -0.73600
O631        O  0.71787403  0.96451021  0.21904198    -0.73600
O632        O  0.78231763  0.03469128  0.21681050    -0.73700
O633        O  0.78232600  0.03718289  0.27418957    -0.73600
O634        O  0.71834479  0.96578270  0.27641511    -0.73600
O635        O  0.77925643  0.96192260  0.27600327    -0.73600
O636        O  0.72141874  0.04077917  0.27476352    -0.73600
Ni637      Ni  0.74988705  0.99983008  0.21590438     1.25400
Ni638      Ni  0.75032055  0.00150717  0.27740621     1.25400
C639        C  0.71133303  0.05271109  0.24601210     0.88600
C640        C  0.78896124  0.94880729  0.24744596     0.88600
C641        C  0.70749939  0.95364588  0.24804590     0.88600
C642        C  0.79346494  0.04654069  0.24507988     0.88800
C643        C  0.51889920  0.78937811  0.27567326     0.46300
H644        H  0.53479172  0.78891850  0.29765161    -0.02700
C645        C  0.98173794  0.79223154  0.22449340     0.46400
H646        H  0.96603345  0.79302733  0.20248031    -0.02700
C647        C  0.98852115  0.81158302  0.28396876    -0.16400
C648        C  0.53032092  0.81096616  0.24390182    -0.16100
C649        C  0.51079446  0.75013521  0.26290415    -0.16500
C650        C  0.96894552  0.81136150  0.25674309    -0.16500
C651        C  0.50989987  0.81194344  0.21724861    -0.16000
C652        C  0.99054760  0.75275736  0.23550751    -0.16400
C653        C  0.00062229  0.02029643  0.46977711     0.03200
C654        C  0.99977683  0.98069858  0.46910623     0.03100
C655        C  0.00081378  0.96113474  0.50038318    -0.17400
C656        C  0.99920727  0.97999756  0.03159935     0.03200
C657        C  0.99761812  0.01939708  0.03258100     0.03100
C658        C  0.99966062  0.03832906  0.50185879    -0.17400
H659        H  0.99899420  0.06857621  0.50290212     0.05200
H660        H  0.00222252  0.93096803  0.49951937     0.05200
C661        C  0.00253409  0.86103877  0.13860095     0.21200
C662        C  0.98933258  0.86848491  0.10663499    -0.38700
C663        C  0.99428357  0.90436081  0.09359884     0.20200
C664        C  0.49965199  0.93427935  0.11338349     0.22800
C665        C  0.51290686  0.92755028  0.14559051    -0.39200
C666        C  0.50947631  0.89129572  0.15863221     0.21600
N667        N  0.99998378  0.82977174  0.15724806    -0.32400
C668        C  0.50984090  0.83839267  0.18782426    -0.10000
C669        C  0.51915656  0.87562067  0.18907535    -0.28800
N670        N  0.50249330  0.96497367  0.09383496    -0.45400
C671        C  0.99873388  0.95552908  0.06247260    -0.04700
C672        C  0.98551200  0.92014386  0.06308696    -0.22000
H673        H  0.97610745  0.84795187  0.09301468     0.19800
H674        H  0.52554838  0.94871932  0.15910550     0.18600
H675        H  0.53012335  0.88990031  0.21009792     0.14800
H676        H  0.97228592  0.90698262  0.04316594     0.14700
H677        H  0.98808565  0.80582536  0.15040647     0.32900
H678        H  0.51617597  0.98745676  0.09979038     0.35600
C679        C  0.97945364  0.86773741  0.35912611     0.21200
C680        C  0.96975899  0.87693296  0.39229775    -0.38700
C681        C  0.98108491  0.91033989  0.40563412     0.20200
C682        C  0.49520708  0.92967338  0.38871128     0.22800
C683        C  0.50728629  0.91977504  0.35663051    -0.39200
C684        C  0.49638036  0.88651226  0.34232233     0.21600
N685        N  0.97311403  0.83656575  0.34139701    -0.32400
C686        C  0.98753378  0.84032102  0.31098674    -0.10000
C687        C  0.50371960  0.86893158  0.31203039    -0.28800
N688        N  0.50297485  0.95885801  0.40860779    -0.45400
C689        C  0.99540081  0.95761966  0.43781013    -0.04700
C690        C  0.97688152  0.92623807  0.43726242    -0.22000
H691        H  0.95492091  0.85906858  0.40691055     0.19800
H692        H  0.52421615  0.93645674  0.34394478     0.18600
H693        H  0.51915690  0.87859643  0.29250468     0.14800
H694        H  0.96290413  0.91571058  0.45786351     0.16300
H695        H  0.96053542  0.81377569  0.34981021     0.32900
H696        H  0.52005856  0.97803382  0.40371269     0.35600
C697        C  0.59887063  0.85874364  0.26289570     0.21200
C698        C  0.61960301  0.87780215  0.28351951    -0.38700
C699        C  0.64361053  0.89435124  0.26595445     0.20200
C700        C  0.64667544  0.89203583  0.23057871     0.22800
C701        C  0.62609071  0.87266697  0.21002305    -0.39200
C702        C  0.60208720  0.85617365  0.22759398     0.21600
N703        N  0.57331850  0.84242217  0.27312891    -0.32400
C704        C  0.55987954  0.82982327  0.24409224    -0.10000
C705        C  0.57756161  0.83717518  0.21523685    -0.28800
N706        N  0.67031111  0.91205511  0.21986569    -0.45400
C707        C  0.68235675  0.92726459  0.24859916    -0.04700
C708        C  0.66647788  0.91664671  0.27791071    -0.22000
H709        H  0.61679617  0.88041278  0.31106739     0.19800
H710        H  0.62815192  0.87143088  0.18231262     0.18600
H711        H  0.57287012  0.83026314  0.18869996     0.14800
H712        H  0.67040716  0.92529332  0.30419043     0.14700
H713        H  0.56523653  0.84106775  0.29830188     0.32900
H714        H  0.67728457  0.91600319  0.19447477     0.35600
C715        C  0.84933779  0.88692079  0.26641571     0.21200
C716        C  0.86951417  0.86719595  0.28736364    -0.38700
C717        C  0.89557552  0.85414454  0.27091218     0.20200
C718        C  0.90110453  0.86036442  0.23638434     0.22800
C719        C  0.88081659  0.87967173  0.21538633    -0.39200
C720        C  0.85472632  0.89252402  0.23172166     0.21600
N721        N  0.82414692  0.90473542  0.27626940    -0.32400
C722        C  0.81352657  0.92159562  0.24754950    -0.10000
C723        C  0.83177615  0.91429582  0.21921764    -0.28800
N724        N  0.92789149  0.84628909  0.22718588    -0.45400
C725        C  0.93962264  0.83096596  0.25605604    -0.04700
C726        C  0.91990306  0.83496382  0.28378540    -0.22000
H727        H  0.86558889  0.86313874  0.31457431     0.19800
H728        H  0.88532644  0.88501154  0.18848556     0.18600
H729        H  0.82966847  0.92557626  0.19351659     0.14800
H730        H  0.92244404  0.82459499  0.30964795     0.14700
H731        H  0.81550777  0.90672154  0.30119622     0.32900
H732        H  0.93773958  0.84769615  0.20283344     0.35600
C733        C  0.50381933  0.12571017  0.14885147     0.21200
C734        C  0.52074479  0.09972868  0.13015767    -0.38700
C735        C  0.50522088  0.08072984  0.10446037     0.20200
C736        C  0.97990817  0.08484292  0.09856911     0.22800
C737        C  0.96294679  0.11272082  0.11529896    -0.39200
C738        C  0.97802864  0.13232290  0.14135165     0.21600
N739        N  0.51305903  0.14502423  0.17617070    -0.32400
C740        C  0.99224264  0.16552892  0.18619949    -0.10000
C741        C  0.96803158  0.15950918  0.16400761    -0.28800
N742        N  0.97115944  0.06251548  0.07270553    -0.45400
C743        C  0.99556435  0.04145931  0.06443825    -0.04700
C744        C  0.51529924  0.05437146  0.08154495    -0.22000
H745        H  0.54422284  0.09432055  0.13560827     0.19800
H746        H  0.93971144  0.11835539  0.10883828     0.18600
H747        H  0.94578749  0.17176525  0.16544795     0.14800
H748        H  0.53816404  0.04458268  0.07808124     0.14700
H749        H  0.53372083  0.14201338  0.18830673     0.32900
H750        H  0.95033665  0.06272258  0.06032252     0.35600
C751        C  0.00353138  0.11414354  0.34224530     0.21200
C752        C  0.99146076  0.08013247  0.35357857    -0.38700
C753        C  0.99788792  0.07051494  0.38774741     0.20200
C754        C  0.51240972  0.08890445  0.40691237     0.22800
C755        C  0.52589844  0.12224930  0.39613596    -0.39200
C756        C  0.51960731  0.13317507  0.36233951     0.21600
N757        N  0.00063490  0.12958320  0.31101663    -0.32400
C758        C  0.51524416  0.16051394  0.31193690    -0.10000
C759        C  0.52771775  0.16487126  0.34454112    -0.28800
N760        N  0.51447797  0.07311948  0.43800672    -0.45400
C761        C  0.00325931  0.04468147  0.43896165    -0.04700
C762        C  0.98925982  0.04003974  0.40706378    -0.22000
H763        H  0.97806197  0.06251433  0.33703030     0.19800
H764        H  0.53992578  0.13871783  0.41300746     0.18600
H765        H  0.54019136  0.18851797  0.35422404     0.14800
H766        H  0.97422669  0.01801888  0.39914446     0.14700
H767        H  0.98890959  0.11871948  0.29004040     0.32900
H768        H  0.52730542  0.08285238  0.45860519     0.35600
C769        C  0.91186116  0.12213290  0.23507770     0.21200
C770        C  0.89729836  0.08987780  0.22352231    -0.38700
C771        C  0.86714013  0.08642018  0.23337336     0.20200
C772        C  0.85278596  0.11252993  0.25401278     0.22800
C773        C  0.86727092  0.14511868  0.26513663    -0.39200
C774        C  0.89727355  0.14901335  0.25455215     0.21600
N775        N  0.94054234  0.13174034  0.22936470    -0.32400
C776        C  0.94402831  0.16572466  0.24416720    -0.10000
C777        C  0.91763964  0.17711902  0.26060892    -0.28800
N778        N  0.82447467  0.10183580  0.26099052    -0.45400
C779        C  0.82072913  0.06922996  0.24390375    -0.04700
C780        C  0.84672389  0.05875771  0.22633939    -0.22000
H781        H  0.90859504  0.06907507  0.20790926     0.19800
H782        H  0.85604564  0.16585380  0.28088160     0.18600
H783        H  0.91383981  0.20266493  0.27487565     0.14800
H784        H  0.85039031  0.03370816  0.21129054     0.14700
H785        H  0.95681560  0.11536966  0.21714738     0.32900
H786        H  0.80866810  0.11583383  0.27619598     0.35600
C787        C  0.60476955  0.15216739  0.23618328     0.21200
C788        C  0.62588377  0.13514227  0.21436431    -0.38700
C789        C  0.64946823  0.11640875  0.23091874     0.20200
C790        C  0.65192835  0.11536192  0.26640441     0.22800
C791        C  0.63087718  0.13246669  0.28809386    -0.39200
C792        C  0.60708987  0.15053072  0.27152934     0.21600
N793        N  0.57919008  0.16922422  0.22700063    -0.32400
C794        C  0.56428820  0.17692755  0.25669822    -0.10000
C795        C  0.58175187  0.16683798  0.28500316    -0.28800
N796        N  0.67512403  0.09389025  0.27596428    -0.45400
C797        C  0.68741692  0.08084565  0.24644306    -0.04700
C798        C  0.67216725  0.09437745  0.21769801    -0.22000
H799        H  0.62344654  0.13518976  0.18667541     0.19800
H800        H  0.63223777  0.13047197  0.31581865     0.18600
H801        H  0.57702389  0.17039307  0.31190949     0.14800
H802        H  0.67620033  0.08754475  0.19096833     0.14700
H803        H  0.57260252  0.17456065  0.20179916     0.32900
H804        H  0.68134897  0.08715886  0.30110712     0.35600
C805        C  0.99183802  0.32508776  0.18029696     0.21200
C806        C  0.97278805  0.34963128  0.16252196    -0.38700
C807        C  0.98563482  0.36794670  0.13434676     0.20200
C808        C  0.51784279  0.36338775  0.12819549     0.22800
C809        C  0.53659595  0.33927322  0.14703367    -0.39200
C810        C  0.52267749  0.32009586  0.17417296     0.21600
N811        N  0.98455940  0.30341185  0.20711496    -0.32400
C812        C  0.50901103  0.28235111  0.21597027    -0.10000
C813        C  0.53349907  0.29244222  0.19559232    -0.28800
N814        N  0.52539845  0.38486249  0.10123523    -0.45400
C815        C  0.49968823  0.40249960  0.09172117    -0.04700
C816        C  0.97342039  0.39380793  0.11221561    -0.22000
H817        H  0.94961640  0.35408317  0.17005566     0.19800
H818        H  0.56007387  0.33523045  0.14064842     0.18600
H819        H  0.55565701  0.27985156  0.19523348     0.14800
H820        H  0.95071507  0.40478983  0.11244645     0.14700
H821        H  0.96339496  0.30124723  0.21858908     0.32900
H822        H  0.54670356  0.38781446  0.09027802     0.35600
C823        C  0.49345277  0.32863022  0.31911244     0.21200
C824        C  0.50778198  0.35978727  0.33317242    -0.38700
C825        C  0.49557795  0.37321001  0.36393503     0.20200
C826        C  0.97000399  0.35828691  0.37832018     0.22800
C827        C  0.95674439  0.32573611  0.36513598    -0.39200
C828        C  0.96835777  0.31292060  0.33359874     0.21600
N829        N  0.50201766  0.30938938  0.29123717    -0.32400
C830        C  0.98283331  0.28083730  0.28778294    -0.10000
C831        C  0.96253623  0.28071838  0.31531796    -0.28800
N832        N  0.96339593  0.37599166  0.40793659    -0.45400
C833        C  0.98237618  0.40548804  0.40948057    -0.04700
C834        C  0.50392729  0.40314954  0.38367878    -0.22000
H835        H  0.52716557  0.37248068  0.32115077     0.19800
H836        H  0.93920106  0.31102415  0.37877441     0.18600
H837        H  0.94696570  0.25896032  0.32247232     0.14800
H838        H  0.52211647  0.42241874  0.37882727     0.14700
H839        H  0.52114867  0.31454308  0.27643531     0.32900
H840        H  0.94682818  0.36880383  0.42576384     0.35600
C841        C  0.50037825  0.66870139  0.18250780     0.21200
C842        C  0.51647654  0.63887971  0.16793156    -0.38700
C843        C  0.50545684  0.62550372  0.13654242     0.20200
C844        C  0.97566103  0.64354359  0.12140911     0.22800
C845        C  0.96041908  0.67425756  0.13580398    -0.39200
C846        C  0.97217619  0.68776487  0.16692406     0.21600
N847        N  0.50790970  0.68848514  0.21049476    -0.32400
C848        C  0.98536940  0.72002792  0.21289868    -0.10000
C849        C  0.96424290  0.71850747  0.18631863    -0.28800
N850        N  0.96894324  0.62513384  0.09226208    -0.45400
C851        C  0.98969882  0.59742504  0.08968940    -0.04700
C852        C  0.51568531  0.59690666  0.11596132    -0.22000
H853        H  0.53645684  0.62740111  0.17983767     0.19800
H854        H  0.94111858  0.68697021  0.12350021     0.18600
H855        H  0.94659023  0.73839320  0.18056761     0.14800
H856        H  0.53452096  0.57842089  0.12078094     0.14700
H857        H  0.52717152  0.68463374  0.22542721     0.32900
H858        H  0.95102074  0.63042740  0.07561402     0.35600
C859        C  0.51515227  0.63680840  0.37505146     0.21200
C860        C  0.53476759  0.66045950  0.35705154    -0.38700
C861        C  0.52179763  0.68098102  0.33009480     0.20200
C862        C  0.99224574  0.67596643  0.32004922     0.22800
C863        C  0.97292807  0.65185457  0.33763430    -0.39200
C864        C  0.98525683  0.63377255  0.36619698     0.21600
N865        N  0.52195004  0.61378446  0.40120623    -0.32400
C866        C  0.49581779  0.59680553  0.40979835    -0.10000
C867        C  0.97241562  0.60876904  0.38850221    -0.28800
N868        N  0.98512820  0.69783483  0.29334610    -0.45400
C869        C  0.51040026  0.71843504  0.28712639    -0.04700
C870        C  0.53404962  0.70734574  0.30834287    -0.22000
H871        H  0.55833321  0.66273336  0.36356994     0.19800
H872        H  0.94982418  0.64778181  0.32983460     0.18600
H873        H  0.94955689  0.59855297  0.38806269     0.14800
H874        H  0.55678593  0.71795669  0.30849442     0.14700
H875        H  0.54306560  0.60945410  0.41226014     0.32900
H876        H  0.96404659  0.70014029  0.28170981     0.35600
N877        N  0.49593349  0.55497961  0.99901565    -0.35700
N878        N  0.99467628  0.49991461  0.94750627    -0.56300
N879        N  0.98341367  0.44321227  0.50018253    -0.35700
N880        N  0.98875199  0.50007952  0.55321466    -0.56300
C881        C  0.50240897  0.57569707  0.97082451     0.27900
C882        C  0.49605728  0.57972984  0.52770827     0.27900
C883        C  0.99686780  0.42131841  0.97227782     0.27900
C884        C  0.98955912  0.42130733  0.52771448     0.27900
C885        C  0.49413741  0.52643380  0.92630775     0.36500
C886        C  0.98835525  0.46996084  0.92764466     0.36500
C887        C  0.48738895  0.53150326  0.57321098     0.36500
C888        C  0.98431232  0.46987650  0.57348548     0.36500
C889        C  0.51025215  0.61145605  0.98119997    -0.21000
C890        C  0.50457901  0.61515540  0.51730121    -0.21000
C891        C  0.00638123  0.38612198  0.98235643    -0.21000
C892        C  0.99598217  0.38535704  0.51642572    -0.21000
C893        C  0.48755976  0.51456112  0.89320559    -0.22100
C894        C  0.98068703  0.48142644  0.89478740    -0.22100
C895        C  0.48138966  0.52099727  0.60682484    -0.22100
C896        C  0.97836605  0.48130014  0.60690632    -0.22100
C897        C  0.49922213  0.56405209  0.93608693    -0.17400
C898        C  0.49183123  0.56878848  0.56233430    -0.17400
C899        C  0.98766627  0.43225144  0.56272611    -0.17400
C900        C  0.99170220  0.43229342  0.93784209    -0.17400
H901        H  0.51577382  0.63511284  0.96520606     0.15500
H902        H  0.50950331  0.63895527  0.53347018     0.15500
H903        H  0.01162113  0.36253176  0.96597392     0.15500
H904        H  0.00096862  0.36099570  0.53182388     0.15500
H905        H  0.48489086  0.53110242  0.87020875     0.13800
H906        H  0.97449599  0.46423964  0.87305915     0.13800
H907        H  0.47815454  0.53884868  0.62898270     0.13800
H908        H  0.97459955  0.46431608  0.62940827     0.13800
H909        H  0.48603241  0.52886261  0.99919073     0.27000
H910        H  0.97459851  0.47004856  0.50081078     0.27000
C911        C  0.51911584  0.21106478  0.72448313     0.46300
H912        H  0.53448396  0.21253410  0.70207521    -0.02700
C913        C  0.98472782  0.20805874  0.77662217     0.46400
H914        H  0.96911235  0.20630501  0.79880269    -0.02700
C915        C  0.99428780  0.18782853  0.71782649    -0.16400
C916        C  0.53303307  0.19305862  0.75698383    -0.16100
C917        C  0.50737025  0.24942951  0.73561522    -0.16500
C918        C  0.97404787  0.18637297  0.74464341    -0.16500
C919        C  0.51293204  0.19084719  0.78394378    -0.16000
C920        C  0.99128437  0.24801029  0.76476920    -0.16400
O921        O  0.72155882  0.04002472  0.72138713    -0.73500
O922        O  0.77912216  0.96060830  0.71973789    -0.73600
O923        O  0.71870183  0.96475275  0.72180208    -0.73600
O924        O  0.78279247  0.03515413  0.71912918    -0.73700
O925        O  0.78384500  0.03662780  0.77651330    -0.73600
O926        O  0.71980083  0.96526044  0.77918058    -0.73600
O927        O  0.78049771  0.96105114  0.77712002    -0.73600
O928        O  0.72275836  0.04057713  0.77874869    -0.73600
Ni929      Ni  0.75042432  0.00027532  0.71850158     1.25400
Ni930      Ni  0.75178520  0.00098544  0.77998756     1.25400
C931        C  0.71217750  0.05276019  0.75028310     0.88600
C932        C  0.78934230  0.94792862  0.74816032     0.88600
C933        C  0.70892233  0.95316503  0.75080803     0.88600
C934        C  0.79445091  0.04652723  0.74728081     0.88800
C935        C  0.52077928  0.78978286  0.77558491     0.46300
H936        H  0.53641574  0.78919369  0.79778118    -0.02700
C937        C  0.98119707  0.79101963  0.72519566     0.46400
H938        H  0.96588141  0.79182764  0.70283295    -0.02700
C939        C  0.98726525  0.81033488  0.78485226    -0.16400
C940        C  0.53338743  0.80898371  0.74308906    -0.16100
C941        C  0.51063870  0.75070193  0.76433221    -0.16500
C942        C  0.96799207  0.81007026  0.75724006    -0.16500
C943        C  0.51310916  0.81052303  0.71623234    -0.16000
C944        C  0.98977492  0.75155645  0.73629762    -0.16400
C945        C  0.99808261  0.02176389  0.96949763     0.03200
C946        C  0.99772052  0.98213809  0.96843171     0.03100
C947        C  0.99958097  0.96233137  0.99945744    -0.17400
C948        C  0.99981413  0.97905705  0.53246375     0.03200
C949        C  0.99881605  0.01856940  0.53289127     0.03100
C950        C  0.99732126  0.03946576  0.00176918    -0.17400
H951        H  0.99604823  0.06966519  0.00317807     0.05200
H952        H  0.00118580  0.93215951  0.99841948     0.05200
C953        C  0.00169351  0.86067101  0.64047117     0.21200
C954        C  0.98946474  0.86749036  0.60787153    -0.38700
C955        C  0.99342417  0.90372018  0.59517394     0.20200
C956        C  0.50606172  0.93129957  0.61045993     0.22800
C957        C  0.52189673  0.92314791  0.64084255    -0.39200
C958        C  0.51680682  0.88761071  0.65490877     0.21600
N959        N  0.00041576  0.82881920  0.65844903    -0.32400
C960        C  0.51430134  0.83580085  0.68582595    -0.10000
C961        C  0.52688815  0.87158600  0.68505860    -0.28800
N962        N  0.50851677  0.96187689  0.59065302    -0.45400
C963        C  0.99821879  0.95479539  0.56371069    -0.04700
C964        C  0.98614464  0.91871439  0.56378029    -0.22000
H965        H  0.97807966  0.84604422  0.59329243     0.19800
H966        H  0.53705825  0.94294660  0.65259916     0.18600
H967        H  0.53976059  0.88531204  0.70491933     0.14800
H968        H  0.97476476  0.90448376  0.54301258     0.14700
H969        H  0.98996424  0.80409898  0.65085583     0.32900
H970        H  0.52427985  0.98286600  0.59405363     0.35600
C971        C  0.97881346  0.86690171  0.86006105     0.21200
C972        C  0.96858541  0.87694553  0.89284936    -0.38700
C973        C  0.97993669  0.91052781  0.90588935     0.20200
C974        C  0.49975099  0.93208788  0.88850833     0.22800
C975        C  0.51181549  0.92253063  0.85623015    -0.39200
C976        C  0.50092819  0.88925778  0.84167358     0.21600
N977        N  0.97166013  0.83609465  0.84212299    -0.32400
C978        C  0.98637231  0.83928784  0.81180605    -0.10000
C979        C  0.50759523  0.87205738  0.81089261    -0.28800
N980        N  0.50698197  0.96141431  0.90859679    -0.45400
C981        C  0.99327836  0.95904272  0.93716046    -0.04700
C982        C  0.97470837  0.92767754  0.93678271    -0.22000
H983        H  0.95293740  0.85989151  0.90717629     0.19800
H984        H  0.52846817  0.93958015  0.84347944     0.18600
H985        H  0.52264857  0.88191879  0.79104656     0.14800
H986        H  0.96016715  0.91787891  0.95718171     0.16300
H987        H  0.95832201  0.81390805  0.85035624     0.32900
H988        H  0.52372724  0.98109566  0.90387569     0.35600
C989        C  0.60179575  0.85595327  0.76351260     0.21200
C990        C  0.62134335  0.87637401  0.78446936    -0.38700
C991        C  0.64597655  0.89229635  0.76770198     0.20200
C992        C  0.65071900  0.88814883  0.73270767     0.22800
C993        C  0.63133257  0.86728925  0.71180567    -0.39200
C994        C  0.60663896  0.85138910  0.72861833     0.21600
N995        N  0.57570279  0.84055851  0.77290502    -0.32400
C996        C  0.56342496  0.82655895  0.74377567    -0.10000
C997        C  0.58250817  0.83190236  0.71568198    -0.28800
N998        N  0.67433180  0.90849502  0.72252467    -0.45400
C999        C  0.68459937  0.92573083  0.75120308    -0.04700
C1000       C  0.66772941  0.91600928  0.78000395    -0.22000
H1001       H  0.61707170  0.88066750  0.81159510     0.19800
H1002       H  0.63462607  0.86480148  0.68431979     0.18600
H1003       H  0.57875743  0.82387526  0.68920903     0.14800
H1004       H  0.67012193  0.92635052  0.80601117     0.14700
H1005       H  0.56642361  0.84101544  0.79755822     0.32900
H1006       H  0.68235205  0.91144667  0.69742189     0.35600
C1007       C  0.84676574  0.88133355  0.76540929     0.21200
C1008       C  0.86696583  0.86170395  0.78635733    -0.38700
C1009       C  0.89316582  0.84902537  0.77005237     0.20200
C1010       C  0.89864286  0.85500979  0.73548862     0.22800
C1011       C  0.87813114  0.87380940  0.71431611    -0.39200
C1012       C  0.85205957  0.88683176  0.73066602     0.21600
N1013       N  0.82248663  0.90069322  0.77570912    -0.32400
C1014       C  0.81244824  0.91875708  0.74736959    -0.10000
C1015       C  0.82990999  0.91024255  0.71863547    -0.28800
N1016       N  0.92605040  0.84248205  0.72678237    -0.45400
C1017       C  0.93820833  0.82850474  0.75604553    -0.04700
C1018       C  0.91814191  0.83168749  0.78347299    -0.22000
H1019       H  0.86332326  0.85832824  0.81369803     0.19800
H1020       H  0.88283094  0.87953507  0.68752424     0.18600
H1021       H  0.82823993  0.92224474  0.69317106     0.14800
H1022       H  0.92098732  0.82219046  0.80957143     0.14700
H1023       H  0.81444467  0.90337460  0.80084193     0.32900
H1024       H  0.93606032  0.84428795  0.70254063     0.35600
C1025       C  0.50235164  0.12422436  0.64850611     0.21200
C1026       C  0.51869437  0.09717743  0.63052345    -0.38700
C1027       C  0.50296472  0.07840241  0.60490340     0.20200
C1028       C  0.98133896  0.08506826  0.59807709     0.22800
C1029       C  0.96458369  0.11325449  0.61465248    -0.39200
C1030       C  0.97970683  0.13253330  0.64089997     0.21600
N1031       N  0.51202331  0.14380625  0.67544559    -0.32400
C1032       C  0.99377949  0.16480143  0.68636493    -0.10000
C1033       C  0.96984617  0.15979554  0.66356183    -0.28800
N1034       N  0.97249211  0.06270818  0.57226424    -0.45400
C1035       C  0.99673091  0.04117800  0.56437649    -0.04700
C1036       C  0.51283786  0.05173151  0.58223645    -0.22000
H1037       H  0.54197933  0.09096584  0.63632617     0.19800
H1038       H  0.94145148  0.11928316  0.60800518     0.18600
H1039       H  0.94776195  0.17252093  0.66477918     0.14800
H1040       H  0.53571072  0.04198704  0.57885504     0.14700
H1041       H  0.53259075  0.14034826  0.68771266     0.32900
H1042       H  0.95172227  0.06308448  0.55976786     0.35600
C1043       C  0.00338847  0.11562293  0.84232535     0.21200
C1044       C  0.99066546  0.08188865  0.85338864    -0.38700
C1045       C  0.99588343  0.07256987  0.88786886     0.20200
C1046       C  0.51231538  0.09251915  0.90748009     0.22800
C1047       C  0.52488521  0.12635946  0.89651612    -0.39200
C1048       C  0.51843605  0.13669396  0.86259213     0.21600
N1049       N  0.00197495  0.13050170  0.81077628    -0.32400
C1050       C  0.51432905  0.16272221  0.81159250    -0.10000
C1051       C  0.52634397  0.16813631  0.84428513    -0.28800
N1052       N  0.51528380  0.07662791  0.93844490    -0.45400
C1053       C  0.00045103  0.04659871  0.93904969    -0.04700
C1054       C  0.98734436  0.04169536  0.90671245    -0.22000
H1055       H  0.97799273  0.06404172  0.83630516     0.19800
H1056       H  0.53863635  0.14338958  0.91321093     0.18600
H1057       H  0.53858592  0.19214732  0.85358671     0.14800
H1058       H  0.97320038  0.01908842  0.89808715     0.14700
H1059       H  0.99079666  0.11956147  0.78944657     0.32900
H1060       H  0.52809165  0.08686818  0.95884531     0.35600
C1061       C  0.91281528  0.12183712  0.73526686     0.21200
C1062       C  0.89695933  0.09176392  0.72119220    -0.38700
C1063       C  0.86741362  0.08749199  0.73301884     0.20200
C1064       C  0.85498658  0.11049588  0.75795454     0.22800
C1065       C  0.87070021  0.14104157  0.77151696    -0.39200
C1066       C  0.89991321  0.14609790  0.75872835     0.21600
N1067       N  0.94115770  0.13187261  0.72817195    -0.32400
C1068       C  0.94592091  0.16408205  0.74569254    -0.10000
C1069       C  0.92081088  0.17333461  0.76560349    -0.28800
N1070       N  0.82712525  0.09915024  0.76626058    -0.45400
C1071       C  0.82162553  0.06940574  0.74572209    -0.04700
C1072       C  0.84607758  0.06143305  0.72450869    -0.22000
H1073       H  0.90682746  0.07324444  0.70224130     0.19800
H1074       H  0.86088996  0.15954826  0.79050648     0.18600
H1075       H  0.91796823  0.19715723  0.78243684     0.14800
H1076       H  0.84831090  0.03871310  0.70630069     0.14700
H1077       H  0.95638395  0.11646975  0.71346377     0.32900
H1078       H  0.81277076  0.11082380  0.78466453     0.35600
C1079       C  0.60440714  0.15026857  0.73782388     0.21200
C1080       C  0.62573695  0.13246001  0.71686615    -0.38700
C1081       C  0.64951129  0.11498454  0.73418961     0.20200
C1082       C  0.65202219  0.11552149  0.76966802     0.22800
C1083       C  0.63069932  0.13350313  0.79060473    -0.39200
C1084       C  0.60669029  0.15053259  0.77321256     0.21600
N1085       N  0.57887406  0.16691055  0.72769339    -0.32400
C1086       C  0.56390565  0.17657144  0.75683029    -0.10000
C1087       C  0.58126669  0.16782139  0.78571730    -0.28800
N1088       N  0.67557671  0.09476049  0.77991681    -0.45400
C1089       C  0.68797570  0.08076596  0.75073560    -0.04700
C1090       C  0.67244654  0.09294389  0.72170585    -0.22000
H1091       H  0.62341500  0.13117568  0.68918976     0.19800
H1092       H  0.63209554  0.13306417  0.81838419     0.18600
H1093       H  0.57644569  0.17311004  0.81238251     0.14800
H1094       H  0.67644960  0.08513141  0.69519709     0.14700
H1095       H  0.57234689  0.17092417  0.70226368     0.32900
H1096       H  0.68199289  0.08912938  0.80522196     0.35600
C1097       C  0.98995165  0.32410639  0.67973076     0.21200
C1098       C  0.97030715  0.34953758  0.66393649    -0.38700
C1099       C  0.98139051  0.36719535  0.63444345     0.20200
C1100       C  0.51046213  0.36305669  0.62365244     0.22800
C1101       C  0.52998944  0.33760722  0.63982278    -0.39200
C1102       C  0.51806830  0.31875036  0.66836461     0.21600
N1103       N  0.98435057  0.30316533  0.70753934    -0.32400
C1104       C  0.50749155  0.28188450  0.71208442    -0.10000
C1105       C  0.53014188  0.29079417  0.68863860    -0.28800
N1106       N  0.51639334  0.38489161  0.59642679    -0.45400
C1107       C  0.49075018  0.40439898  0.59035202    -0.04700
C1108       C  0.96841688  0.39393746  0.61374884    -0.22000
H1109       H  0.94805861  0.35526924  0.67398368     0.19800
H1110       H  0.55264675  0.33263574  0.63068527     0.18600
H1111       H  0.55193114  0.27757315  0.68587721     0.14800
H1112       H  0.94625693  0.40620525  0.61641029     0.14700
H1113       H  0.96417178  0.30220723  0.72126284     0.32900
H1114       H  0.53671109  0.38688206  0.58307683     0.35600
C1115       C  0.49764054  0.32826446  0.81721254     0.21200
C1116       C  0.51429721  0.35702479  0.83223636    -0.38700
C1117       C  0.50381808  0.36965322  0.86409786     0.20200
C1118       C  0.97674095  0.35747465  0.87889176     0.22800
C1119       C  0.96172478  0.32632786  0.86526721    -0.39200
C1120       C  0.97233892  0.31338061  0.83330925     0.21600
N1121       N  0.50473886  0.30919787  0.78870519    -0.32400
C1122       C  0.98517021  0.28096758  0.78706089    -0.10000
C1123       C  0.96506933  0.28178667  0.81476741    -0.28800
N1124       N  0.97124048  0.37507777  0.90885898    -0.45400
C1125       C  0.99146801  0.40325171  0.91053811    -0.04700
C1126       C  0.51447270  0.39756212  0.88489648    -0.22000
H1127       H  0.53424936  0.36832271  0.82024031     0.19800
H1128       H  0.94367259  0.31261840  0.87892785     0.18600
H1129       H  0.94884111  0.26078398  0.82194422     0.14800
H1130       H  0.53335158  0.41577007  0.88001075     0.14700
H1131       H  0.52402414  0.31292751  0.77377687     0.32900
H1132       H  0.95433814  0.36899885  0.92662941     0.35600
C1133       C  0.49912990  0.67001001  0.68356487     0.21200
C1134       C  0.51529784  0.64090947  0.66797967    -0.38700
C1135       C  0.50350529  0.62763515  0.63697885     0.20200
C1136       C  0.97572450  0.64288545  0.62208359     0.22800
C1137       C  0.96040241  0.67359050  0.63628516    -0.39200
C1138       C  0.97152030  0.68656053  0.66785243     0.21600
N1139       N  0.50738792  0.68975132  0.71124255    -0.32400
C1140       C  0.98434423  0.71868763  0.71396704    -0.10000
C1141       C  0.96364363  0.71749548  0.68695902    -0.28800
N1142       N  0.96948392  0.62497668  0.59259156    -0.45400
C1143       C  0.98999368  0.59699777  0.59028776    -0.04700
C1144       C  0.51358556  0.59957644  0.61571369    -0.22000
H1145       H  0.53590293  0.62993163  0.67885010     0.19800
H1146       H  0.94158427  0.68678284  0.62344373     0.18600
H1147       H  0.94647396  0.73780996  0.68060932     0.14800
H1148       H  0.53288307  0.58155629  0.61953980     0.14700
H1149       H  0.52731181  0.68636553  0.72509683     0.32900
H1150       H  0.95188875  0.63065290  0.57559515     0.35600
C1151       C  0.51891825  0.63564875  0.87528310     0.21200
C1152       C  0.53702815  0.66287319  0.85959887    -0.38700
C1153       C  0.52415904  0.68152667  0.83140619     0.20200
C1154       C  0.99279660  0.67390750  0.82021904     0.22800
C1155       C  0.97398927  0.64985917  0.83853679    -0.39200
C1156       C  0.98727224  0.63153840  0.86636412     0.21600
N1157       N  0.52591497  0.61382336  0.90227246    -0.32400
C1158       C  0.50117356  0.59281890  0.90849421    -0.10000
C1159       C  0.97505192  0.60684871  0.88934735    -0.28800
N1160       N  0.98474509  0.69647066  0.79440290    -0.45400
C1161       C  0.51196166  0.71822216  0.78795728    -0.04700
C1162       C  0.53483690  0.71060122  0.81152537    -0.22000
H1163       H  0.55934843  0.66929169  0.86885814     0.19800
H1164       H  0.95053911  0.64623645  0.83198616     0.18600
H1165       H  0.95217791  0.59669351  0.88999166     0.14800
H1166       H  0.55593363  0.72516827  0.81448197     0.14700
H1167       H  0.54633746  0.61300468  0.91548171     0.32900
H1168       H  0.96323939  0.69932601  0.78393100     0.35600
loop_ 
_geom_bond_atom_site_label_1 
_geom_bond_atom_site_label_2 
_geom_bond_distance 
_geom_bond_site_symmetry_2 
_ccdc_geom_bond_type 
N1           H33   1.035       .  S
N1            C5   1.355       .  A
N1          C298   1.352       .  A
N2           C10   1.351       .  A
N2          C593   1.354       .  A
N3           H34   1.036       .  S
N3            C8   1.354       .  A
N3          C299   1.351   1_554  A
N4           C12   1.353       .  A
N4          C595   1.351       .  A
C5           C13   1.389   1_655  A
C5           C21   1.419       .  A
C6          N293   1.352       .  A
C6           C22   1.413       .  A
C6           C14   1.387   1_655  A
C7          N295   1.353       .  A
C7           C15   1.387       .  A
C7           C24   1.416       .  A
C8           C23   1.415       .  A
C8           C16   1.388       .  A
C9          N586   1.355       .  A
C9           C21   1.420       .  A
C9           C17   1.388       .  A
C10          C24   1.416       .  A
C10          C18   1.387       .  A
C11         N588   1.353       .  A
C11          C19   1.385       .  A
C11          C22   1.415       .  A
C12          C20   1.387       .  A
C12          C23   1.414       .  A
C13         C306   1.376       .  A
C13          H25   1.081       .  S
C14         C305   1.376   1_554  A
C14          H26   1.082       .  S
C15         C308   1.373       .  A
C15          H27   1.082       .  S
C16         C307   1.375   1_554  A
C16          H28   1.082       .  S
C17         C602   1.367       .  A
C17          H29   1.079       .  S
C18         C601   1.368       .  A
C18          H30   1.082       .  S
C19         C604   1.369       .  A
C19          H31   1.082       .  S
C20         C603   1.367       .  A
C20          H32   1.081       .  S
C21         C282   1.489       .  S
C22         C851   1.482       .  S
C23         C815   1.480       .  S
C24         C249   1.482       .  S
C35          H36   1.108       .  S
C35          C41   1.534       .  S
C35          C40   1.544       .  S
C35         C623   1.534   1_455  S
C37          H38   1.110       .  S
C37          C42   1.537       .  S
C37          C44   1.532       .  S
C37         C627   1.529       .  S
C39         C619   1.535       .  S
C39          C42   1.377       .  D
C39         C156   1.481       .  S
C40          C43   1.381       .  D
C40         C210   1.496       .  S
C41         C628   1.372   1_455  D
C41         C228   1.482       .  S
C42         C192   1.478       .  S
C43         C621   1.531   1_455  S
C43         C174   1.473       .  S
C44         C625   1.368       .  D
C44         C246   1.480       .  S
O45         Ni53   1.915   1_545  S
O45          C55   1.281       .  A
O46         Ni53   1.905       .  S
O46          C56   1.279       .  A
O47         Ni53   1.917       .  S
O47          C57   1.280       .  A
O48         Ni53   1.907   1_545  S
O48          C58   1.279       .  A
O49         Ni54   1.916   1_545  S
O49          C58   1.279       .  A
O50         Ni54   1.916       .  S
O50          C57   1.281       .  A
O51         Ni54   1.915       .  S
O51          C56   1.280       .  A
O52         Ni54   1.910   1_545  S
O52          C55   1.280       .  A
Ni53        Ni54   2.393       .  S
C55         C213   1.465       .  S
C56         C138   1.459       .  S
C57         C123   1.469       .  S
C58         C195   1.457       .  S
C59          H60   1.110       .  S
C59          C65   1.537       .  S
C59          C64   1.540       .  S
C59         C647   1.532   1_455  S
C61          H62   1.107       .  S
C61          C66   1.535       .  S
C61          C68   1.530       .  S
C61         C651   1.529       .  S
C63         C643   1.531       .  S
C63          C66   1.372       .  D
C63         C102   1.476       .  S
C64          C67   1.378       .  D
C64         C120   1.483       .  S
C65         C652   1.371   1_455  D
C65         C285   1.479       .  S
C66         C141   1.468       .  S
C67         C645   1.532   1_455  S
C67          C84   1.478       .  S
C68         C649   1.368       .  D
C68         C264   1.486       .  S
C69          C70   1.420   1_545  A
C69          C74   1.407       .  A
C69         C177   1.487       .  S
C70          C71   1.406       .  A
C70         C105   1.486       .  S
C71         C364   1.404       .  A
C71          H76   1.083       .  S
C72          C73   1.415   1_565  A
C72         C363   1.405       .  A
C72          C87   1.499       .  S
C73         C366   1.400       .  A
C73         C159   1.470       .  S
C74         C365   1.400       .  A
C74          H75   1.085       .  S
C77          N83   1.342       .  A
C77          C78   1.403       .  A
C77         C666   1.382       .  A
C78          C79   1.402       .  A
C78          H89   1.082       .  S
C79          C88   1.375       .  A
C79         C664   1.380       .  A
C80          N86   1.341       .  A
C80          C81   1.401       .  A
C80         C663   1.381   1_455  A
C81          C82   1.400       .  A
C81          H90   1.082       .  S
C82          C85   1.373       .  A
C82         C661   1.383       .  A
N83          H93   1.044       .  S
N83         C668   1.357       .  A
C84         N667   1.356   1_455  A
C84          C85   1.396       .  A
C85          H91   1.082       .  S
N86          H94   1.038       .  S
N86         C671   1.356   1_455  A
C87         N670   1.360       .  A
C87          C88   1.402       .  A
C88          H92   1.082       .  S
C95         N101   1.345       .  A
C95          C96   1.402       .  A
C95         C684   1.385       .  A
C96          C97   1.403       .  A
C96         H107   1.082       .  S
C97         C106   1.372       .  A
C97         C682   1.384       .  A
C98         N104   1.348       .  A
C98          C99   1.403       .  A
C98         C681   1.384   1_455  A
C99         C100   1.405   1_455  A
C99         H108   1.082       .  S
C100        C103   1.374   1_655  A
C100        C679   1.386       .  A
N101        H111   1.044       .  S
N101        C102   1.354       .  A
C102        C687   1.393       .  A
C103        C686   1.393   1_455  A
C103        H109   1.082       .  S
N104        H112   1.044       .  S
N104        C689   1.357   1_455  A
C105        N688   1.357       .  A
C105        C106   1.399       .  A
C106        H110   1.083       .  S
C113        N119   1.341       .  A
C113        C118   1.384       .  A
C113        C114   1.402       .  A
C114        C115   1.401       .  A
C114        H125   1.082       .  S
C115        C124   1.376       .  A
C115        C116   1.385       .  A
C116        N122   1.344       .  A
C116        C117   1.404       .  A
C117        C118   1.403       .  A
C117        H126   1.082       .  S
C118        C121   1.378       .  A
N119        H129   1.044       .  S
N119        C120   1.355       .  A
C120        C121   1.398       .  A
C121        H127   1.082       .  S
N122        H130   1.045       .  S
N122        C123   1.356       .  A
C123        C124   1.394       .  A
C124        H128   1.082       .  S
C131        N137   1.341       .  A
C131        C136   1.386       .  A
C131        C132   1.400       .  A
C132        C133   1.399       .  A
C132        H143   1.082       .  S
C133        C142   1.372       .  A
C133        C134   1.385       .  A
C134        N140   1.338       .  A
C134        C135   1.399       .  A
C135        C136   1.399       .  A
C135        H144   1.083       .  S
C136        C139   1.372       .  A
N137        H147   1.045       .  S
N137        C138   1.353       .  A
C138        C139   1.393       .  A
C139        H145   1.083       .  S
N140        H148   1.045       .  S
N140        C141   1.353       .  A
C141        C142   1.392       .  A
C142        H146   1.080       .  S
C149        N155   1.334       .  A
C149        C150   1.398       .  A
C149        C738   1.383   1_455  A
C150        C151   1.395       .  A
C150        H161   1.083       .  S
C151        C160   1.372       .  A
C151        C736   1.383   1_455  A
C152        N158   1.345       .  A
C152        C153   1.409       .  A
C152        C735   1.383       .  A
C153        C154   1.406       .  A
C153        H162   1.082       .  S
C154        C157   1.386       .  A
C154        C733   1.383       .  A
N155        H165   1.040       .  S
N155        C740   1.351   1_455  A
C156        N739   1.351       .  A
C156        C157   1.400       .  A
C157        H163   1.082       .  S
N158        H166   1.044       .  S
N158        C159   1.357       .  A
C159        C744   1.391       .  A
C160        C743   1.391   1_455  A
C160        H164   1.082       .  S
C167        N173   1.341       .  A
C167        C168   1.406       .  A
C167        C756   1.383       .  A
C168        C169   1.403       .  A
C168        H179   1.082       .  S
C169        C178   1.383       .  A
C169        C754   1.382       .  A
C170        N176   1.339       .  A
C170        C171   1.403       .  A
C170        C753   1.382   1_455  A
C171        C172   1.400       .  A
C171        H180   1.082       .  S
C172        C175   1.379       .  A
C172        C751   1.384       .  A
N173        H183   1.044       .  S
N173        C758   1.356       .  A
C174        N757   1.355       .  A
C174        C175   1.393       .  A
C175        H181   1.082       .  S
N176        H184   1.045       .  S
N176        C761   1.359       .  A
C177        N760   1.358       .  A
C177        C178   1.399       .  A
C178        H182   1.082       .  S
C185        N191   1.337       .  A
C185        C190   1.384       .  A
C185        C186   1.397       .  A
C186        C187   1.396       .  A
C186        H197   1.083       .  S
C187        C196   1.369       .  A
C187        C188   1.386       .  A
C188        N194   1.344       .  A
C188        C189   1.404       .  A
C189        C190   1.403       .  A
C189        H198   1.082       .  S
C190        C193   1.376       .  A
N191        H201   1.043       .  S
N191        C192   1.353       .  A
C192        C193   1.396       .  A
C193        H199   1.082       .  S
N194        H202   1.045       .  S
N194        C195   1.355       .  A
C195        C196   1.389       .  A
C196        H200   1.083       .  S
C203        N209   1.342       .  A
C203        C208   1.379       .  A
C203        C204   1.404       .  A
C204        C205   1.403       .  A
C204        H215   1.082       .  S
C205        C214   1.378       .  A
C205        C206   1.385       .  A
C206        N212   1.340       .  A
C206        C207   1.400       .  A
C207        C208   1.399       .  A
C207        H216   1.082       .  S
C208        C211   1.372       .  A
N209        H219   1.042       .  S
N209        C210   1.360       .  A
C210        C211   1.398       .  A
C211        H217   1.073       .  S
N212        H220   1.045       .  S
N212        C213   1.354       .  A
C213        C214   1.395       .  A
C214        H218   1.082       .  S
C221        N227   1.339       .  A
C221        C222   1.399       .  A
C221        C810   1.385       .  A
C222        C223   1.397       .  A
C222        H233   1.082       .  S
C223        C232   1.373       .  A
C223        C808   1.385       .  A
C224        N230   1.345       .  A
C224        C225   1.406       .  A
C224        C807   1.384   1_455  A
C225        C226   1.405       .  A
C225        H234   1.082       .  S
C226        C229   1.381       .  A
C226        C805   1.384   1_455  A
N227        H237   1.045       .  S
N227        C812   1.353       .  A
C228        N811   1.355   1_455  A
C228        C229   1.397       .  A
C229        H235   1.082       .  S
N230        H238   1.045       .  S
N230        C231   1.357   1_455  A
C231        C816   1.394       .  A
C231        C607   1.487       .  S
C232        C815   1.392       .  A
C232        H236   1.082       .  S
C239        N245   1.341   1_655  A
C239        C240   1.401   1_655  A
C239        C828   1.383       .  A
C240        C241   1.399   1_455  A
C240        H251   1.082       .  S
C241        C250   1.373   1_655  A
C241        C826   1.384       .  A
C242        N248   1.344       .  A
C242        C243   1.404       .  A
C242        C825   1.385       .  A
C243        C244   1.404       .  A
C243        H252   1.082       .  S
C244        C247   1.378       .  A
C244        C823   1.383       .  A
N245        H255   1.044       .  S
N245        C830   1.357   1_455  A
C246        N829   1.356       .  A
C246        C247   1.397       .  A
C247        H253   1.082       .  S
N248        H256   1.045       .  S
N248        C249   1.356       .  A
C249        C834   1.393       .  A
C250        C833   1.394   1_455  A
C250        H254   1.082       .  S
C257        N263   1.341   1_655  A
C257        C258   1.400   1_655  A
C257        C846   1.383       .  A
C258        C259   1.399       .  A
C258        H269   1.082       .  S
C259        C268   1.373       .  A
C259        C844   1.385   1_455  A
C260        N266   1.345       .  A
C260        C261   1.404       .  A
C260        C843   1.384       .  A
C261        C262   1.404       .  A
C261        H270   1.082       .  S
C262        C265   1.378       .  A
C262        C841   1.383       .  A
N263        H273   1.044       .  S
N263        C848   1.356   1_455  A
C264        N847   1.357       .  A
C264        C265   1.398       .  A
C265        H271   1.081       .  S
N266        H274   1.045       .  S
N266        C267   1.355       .  A
C267        C852   1.395       .  A
C267        C606   1.483       .  S
C268        C851   1.392   1_455  A
C268        H272   1.082       .  S
C275        N281   1.347       .  A
C275        C276   1.408       .  A
C275        C864   1.383   1_455  A
C276        C277   1.407       .  A
C276        H287   1.082       .  S
C277        C286   1.384       .  A
C277        C862   1.384   1_455  A
C278        N284   1.339       .  A
C278        C279   1.401       .  A
C278        C861   1.384       .  A
C279        C280   1.399       .  A
C279        H288   1.082       .  S
C280        C283   1.375       .  A
C280        C859   1.385       .  A
N281        H291   1.045       .  S
N281        C282   1.359   1_455  A
C282        C867   1.393       .  A
C283        C866   1.393       .  A
C283        H289   1.082       .  S
N284        H292   1.045       .  S
N284        C869   1.355       .  A
C285        N868   1.354   1_455  A
C285        C286   1.397       .  A
C286        H290   1.082       .  S
N293        H325   1.038   1_554  S
N293        C297   1.354   1_554  A
N294        C885   1.355       .  A
N294        C302   1.352       .  A
N295        H326   1.036       .  S
N295        C300   1.355       .  A
N296        C887   1.352       .  A
N296        C304   1.353       .  A
C297        C305   1.389   1_655  A
C297        C313   1.415       .  A
C298        C314   1.416       .  A
C298        C306   1.387   1_655  A
C299        C307   1.387       .  A
C299        C316   1.413       .  A
C300        C315   1.417       .  A
C300        C308   1.387       .  A
C301        N878   1.353       .  A
C301        C313   1.415       .  A
C301        C309   1.388       .  A
C302        C316   1.416       .  A
C302        C310   1.386       .  A
C303        N880   1.353       .  A
C303        C311   1.386       .  A
C303        C314   1.418       .  A
C304        C312   1.387       .  A
C304        C315   1.415       .  A
C305        H317   1.082       .  S
C306        H318   1.082       .  S
C307        H319   1.082       .  S
C308        H320   1.082       .  S
C309        C894   1.367       .  A
C309        H321   1.080       .  S
C310        C893   1.367       .  A
C310        H322   1.082       .  S
C311        C896   1.368       .  A
C311        H323   1.082       .  S
C312        C895   1.368       .  A
C312        H324   1.081       .  S
C313        C574   1.481       .  S
C314       C1143   1.481       .  S
C315       C1107   1.483       .  S
C316        C541   1.479       .  S
C327        H328   1.107       .  S
C327        C333   1.533       .  S
C327        C332   1.546       .  S
C327        C915   1.534   1_455  S
C329        H330   1.110       .  S
C329        C919   1.528       .  S
C329        C334   1.538       .  S
C329        C336   1.532       .  S
C331        C911   1.537       .  S
C331        C334   1.377       .  D
C331        C448   1.478       .  S
C332        C335   1.380       .  D
C332        C502   1.498       .  S
C333        C920   1.370   1_455  D
C333        C520   1.483       .  S
C334        C484   1.481       .  S
C335        C913   1.528   1_455  S
C335        C466   1.470       .  S
C336        C917   1.367       .  D
C336        C538   1.479       .  S
O337       Ni345   1.916   1_545  S
O337        C347   1.281       .  A
O338       Ni345   1.904       .  S
O338        C348   1.278       .  A
O339       Ni345   1.920       .  S
O339        C349   1.281       .  A
O340       Ni345   1.914   1_545  S
O340        C350   1.280       .  A
O341       Ni346   1.918   1_545  S
O341        C350   1.280       .  A
O342       Ni346   1.918       .  S
O342        C349   1.281       .  A
O343       Ni346   1.920       .  S
O343        C348   1.281       .  A
O344       Ni346   1.915   1_545  S
O344        C347   1.281       .  A
Ni345      Ni346   2.392       .  S
C347        C505   1.469       .  S
C348        C430   1.462       .  S
C349        C415   1.472       .  S
C350        C487   1.462       .  S
C351        H352   1.110       .  S
C351        C357   1.536       .  S
C351        C356   1.539       .  S
C351        C939   1.534   1_455  S
C353        H354   1.106       .  S
C353        C943   1.535       .  S
C353        C358   1.533       .  S
C353        C360   1.530       .  S
C355        C935   1.529       .  S
C355        C358   1.371       .  D
C355        C394   1.474       .  S
C356        C359   1.378       .  D
C356        C412   1.483       .  S
C357        C944   1.369   1_455  D
C357        C577   1.473       .  S
C358        C433   1.471       .  S
C359        C937   1.531   1_455  S
C359        C376   1.477       .  S
C360        C941   1.368       .  D
C360        C556   1.482       .  S
C361        C362   1.420   1_545  A
C361        C366   1.406   1_556  A
C361        C469   1.489       .  S
C362        C363   1.409   1_556  A
C362        C397   1.488       .  S
C363        H368   1.082   1_554  S
C364        C365   1.414   1_565  A
C364        C379   1.491       .  S
C365        C451   1.472       .  S
C366        H367   1.085       .  S
C369        N375   1.340       .  A
C369        C958   1.381       .  A
C369        C370   1.402       .  A
C370        C371   1.400       .  A
C370        H381   1.082       .  S
C371        C380   1.374       .  A
C371        C956   1.381       .  A
C372        N378   1.342       .  A
C372        C955   1.380   1_455  A
C372        C373   1.403       .  A
C373        C374   1.401       .  A
C373        H382   1.082       .  S
C374        C953   1.383       .  A
C374        C377   1.376       .  A
N375        H385   1.044       .  S
N375        C960   1.358       .  A
C376        N959   1.356       .  A
C376        C377   1.396       .  A
C377        H383   1.082       .  S
N378        H386   1.037       .  S
N378        C963   1.358   1_455  A
C379        N962   1.359       .  A
C379        C380   1.398       .  A
C380        H384   1.082       .  S
C387        N393   1.343       .  A
C387        C976   1.385       .  A
C387        C388   1.398       .  A
C388        C389   1.400       .  A
C388        H399   1.082       .  S
C389        C398   1.368       .  A
C389        C974   1.383       .  A
C390        N396   1.349       .  A
C390        C973   1.384   1_455  A
C390        C391   1.404       .  A
C391        C392   1.406   1_455  A
C391        H400   1.082       .  S
C392        C971   1.385       .  A
C392        C395   1.375   1_655  A
N393        H403   1.044       .  S
N393        C394   1.351       .  A
C394        C979   1.396       .  A
C395        C978   1.394   1_455  A
C395        H401   1.082       .  S
N396        H404   1.044       .  S
N396        C981   1.357   1_455  A
C397        N980   1.359       .  A
C397        C398   1.397       .  A
C398        H402   1.083       .  S
C405        N411   1.342       .  A
C405        C410   1.383       .  A
C405        C406   1.404       .  A
C406        C407   1.403       .  A
C406        H417   1.082       .  S
C407        C416   1.379       .  A
C407        C408   1.385       .  A
C408        N414   1.343       .  A
C408        C409   1.404       .  A
C409        C410   1.402       .  A
C409        H418   1.082       .  S
C410        C413   1.378       .  A
N411        H421   1.044       .  S
N411        C412   1.356       .  A
C412        C413   1.396       .  A
C413        H419   1.082       .  S
N414        H422   1.045       .  S
N414        C415   1.355       .  A
C415        C416   1.396       .  A
C416        H420   1.082       .  S
C423        N429   1.342       .  A
C423        C428   1.386       .  A
C423        C424   1.401       .  A
C424        C425   1.400       .  A
C424        H435   1.082       .  S
C425        C434   1.373       .  A
C425        C426   1.384       .  A
C426        N432   1.340       .  A
C426        C427   1.399       .  A
C427        C428   1.400       .  A
C427        H436   1.083       .  S
C428        C431   1.372       .  A
N429        H439   1.045       .  S
N429        C430   1.354       .  A
C430        C431   1.393       .  A
C431        H437   1.083       .  S
N432        H440   1.045       .  S
N432        C433   1.354       .  A
C433        C434   1.393       .  A
C434        H438   1.079       .  S
C441        N447   1.334       .  A
C441       C1030   1.384   1_455  A
C441        C442   1.397       .  A
C442        C443   1.394       .  A
C442        H453   1.083       .  S
C443        C452   1.371       .  A
C443       C1028   1.383   1_455  A
C444        N450   1.346       .  A
C444       C1027   1.383       .  A
C444        C445   1.410       .  A
C445        C446   1.408       .  A
C445        H454   1.082       .  S
C446       C1025   1.383       .  A
C446        C449   1.387       .  A
N447        H457   1.041       .  S
N447       C1032   1.351   1_455  A
C448       N1031   1.349       .  A
C448        C449   1.401       .  A
C449        H455   1.082       .  S
N450        H458   1.045       .  S
N450        C451   1.359       .  A
C451       C1036   1.389       .  A
C452       C1035   1.391   1_455  A
C452        H456   1.083       .  S
C459        N465   1.341       .  A
C459       C1048   1.383       .  A
C459        C460   1.406       .  A
C460        C461   1.403       .  A
C460        H471   1.082       .  S
C461        C470   1.383       .  A
C461       C1046   1.382       .  A
C462        N468   1.337       .  A
C462       C1045   1.382   1_455  A
C462        C463   1.402       .  A
C463        C464   1.398       .  A
C463        H472   1.082       .  S
C464       C1043   1.384       .  A
C464        C467   1.378       .  A
N465        H475   1.044       .  S
N465       C1050   1.355       .  A
C466       N1049   1.355       .  A
C466        C467   1.393       .  A
C467        H473   1.082       .  S
N468        H476   1.045       .  S
N468       C1053   1.359       .  A
C469       N1052   1.359       .  A
C469        C470   1.399       .  A
C470        H474   1.082       .  S
C477        N483   1.339       .  A
C477        C482   1.383       .  A
C477        C478   1.399       .  A
C478        C479   1.398       .  A
C478        H489   1.083       .  S
C479        C488   1.373       .  A
C479        C480   1.385       .  A
C480        N486   1.345       .  A
C480        C481   1.405       .  A
C481        C482   1.404       .  A
C481        H490   1.082       .  S
C482        C485   1.378       .  A
N483        H493   1.043       .  S
N483        C484   1.355       .  A
C484        C485   1.397       .  A
C485        H491   1.082       .  S
N486        H494   1.045       .  S
N486        C487   1.355       .  A
C487        C488   1.391       .  A
C488        H492   1.083       .  S
C495        N501   1.343       .  A
C495        C500   1.380       .  A
C495        C496   1.404       .  A
C496        C497   1.403       .  A
C496        H507   1.082       .  S
C497        C506   1.379       .  A
C497        C498   1.385       .  A
C498        N504   1.342       .  A
C498        C499   1.402       .  A
C499        C500   1.401       .  A
C499        H508   1.082       .  S
C500        C503   1.374       .  A
N501        H511   1.042       .  S
N501        C502   1.360       .  A
C502        C503   1.399       .  A
C503        H509   1.075       .  S
N504        H512   1.045       .  S
N504        C505   1.354       .  A
C505        C506   1.396       .  A
C506        H510   1.082       .  S
C513        N519   1.339       .  A
C513       C1102   1.384       .  A
C513        C514   1.401       .  A
C514        C515   1.399       .  A
C514        H525   1.082       .  S
C515        C524   1.376       .  A
C515       C1100   1.384       .  A
C516        N522   1.344       .  A
C516       C1099   1.384   1_455  A
C516        C517   1.406       .  A
C517        C518   1.404       .  A
C517        H526   1.082       .  S
C518       C1097   1.383   1_455  A
C518        C521   1.381       .  A
N519        H529   1.045       .  S
N519       C1104   1.355       .  A
C520       N1103   1.356   1_455  A
C520        C521   1.397       .  A
C521        H527   1.082       .  S
N522        H530   1.045       .  S
N522        C523   1.357   1_455  A
C523       C1108   1.395       .  A
C523        C899   1.488       .  S
C524       C1107   1.393       .  A
C524        H528   1.082       .  S
C531        N537   1.341   1_655  A
C531       C1120   1.383       .  A
C531        C532   1.401   1_655  A
C532        C533   1.399       .  A
C532        H543   1.082       .  S
C533        C542   1.374       .  A
C533       C1118   1.384   1_455  A
C534        N540   1.343       .  A
C534       C1117   1.385       .  A
C534        C535   1.403       .  A
C535        C536   1.403       .  A
C535        H544   1.082       .  S
C536       C1115   1.384       .  A
C536        C539   1.378       .  A
N537        H547   1.044       .  S
N537       C1122   1.357   1_455  A
C538       N1121   1.356       .  A
C538        C539   1.396       .  A
C539        H545   1.082       .  S
N540        H548   1.045       .  S
N540        C541   1.355       .  A
C541       C1126   1.393       .  A
C542       C1125   1.394   1_455  A
C542        H546   1.082       .  S
C549        N555   1.340   1_655  A
C549       C1138   1.383       .  A
C549        C550   1.400   1_655  A
C550        C551   1.399       .  A
C550        H561   1.082       .  S
C551        C560   1.374       .  A
C551       C1136   1.385   1_455  A
C552        N558   1.343       .  A
C552       C1135   1.385       .  A
C552        C553   1.404       .  A
C553        C554   1.403       .  A
C553        H562   1.082       .  S
C554       C1133   1.384       .  A
C554        C557   1.378       .  A
N555        H565   1.044       .  S
N555       C1140   1.356   1_455  A
C556       N1139   1.356       .  A
C556        C557   1.397       .  A
C557        H563   1.082       .  S
N558        H566   1.045       .  S
N558        C559   1.355       .  A
C559       C1144   1.393       .  A
C559        C898   1.480       .  S
C560       C1143   1.393   1_455  A
C560        H564   1.082       .  S
C567        N573   1.344       .  A
C567       C1156   1.384   1_455  A
C567        C568   1.406       .  A
C568        C569   1.405       .  A
C568        H579   1.082       .  S
C569        C578   1.381       .  A
C569       C1154   1.385   1_455  A
C570        N576   1.341       .  A
C570       C1153   1.384       .  A
C570        C571   1.403       .  A
C571        C572   1.401       .  A
C571        H580   1.082       .  S
C572       C1151   1.383       .  A
C572        C575   1.377       .  A
N573        H583   1.045       .  S
N573        C574   1.357   1_455  A
C574       C1159   1.392       .  A
C575       C1158   1.396       .  A
C575        H581   1.082       .  S
N576        H584   1.045       .  S
N576       C1161   1.357       .  A
C577       N1160   1.353   1_455  A
C577        C578   1.395       .  A
C578        H582   1.082       .  S
N585        H617   1.034       .  S
N585        C882   1.352       .  A
N585        C589   1.354       .  A
N586        C594   1.353       .  A
N587        H618   1.037       .  S
N587        C592   1.355       .  A
N587        C883   1.354   1_554  A
N588        C596   1.354       .  A
C589        C597   1.389       .  A
C589        C605   1.418       .  A
C590        N877   1.354   1_554  A
C590        C606   1.416       .  A
C590        C598   1.385       .  A
C591        N879   1.354       .  A
C591        C599   1.386       .  A
C591        C608   1.416       .  A
C592        C607   1.419       .  A
C592        C600   1.390   1_655  A
C593        C605   1.417       .  A
C593        C601   1.387       .  A
C594        C608   1.416       .  A
C594        C602   1.385       .  A
C595        C603   1.387       .  A
C595        C606   1.414       .  A
C596        C604   1.388       .  A
C596        C607   1.419       .  A
C597        C890   1.376       .  A
C597        H609   1.082       .  S
C598        C889   1.375   1_554  A
C598        H610   1.082       .  S
C599        C892   1.374       .  A
C599        H611   1.082       .  S
C600        C891   1.377   1_554  A
C600        H612   1.081       .  S
C601        H613   1.081       .  S
C602        H614   1.082       .  S
C603        H615   1.082       .  S
C604        H616   1.080       .  S
C605        C866   1.483       .  S
C608        C833   1.487       .  S
C619        H620   1.108       .  S
C619        C625   1.526       .  S
C619        C624   1.541       .  S
C621        H622   1.109       .  S
C621        C626   1.540       .  S
C621        C628   1.535       .  S
C623        C626   1.375       .  D
C623        C740   1.477       .  S
C624        C627   1.381       .  D
C624        C794   1.487       .  S
C625        C812   1.474       .  S
C626        C776   1.482       .  S
C627        C758   1.476       .  S
C628        C830   1.489       .  S
O629       Ni637   1.917   1_545  S
O629        C639   1.281       .  A
O630       Ni637   1.908       .  S
O630        C640   1.280       .  A
O631       Ni637   1.913       .  S
O631        C641   1.280       .  A
O632       Ni637   1.913   1_545  S
O632        C642   1.280       .  A
O633       Ni638   1.922       .  S
O633        C642   1.281       .  A
O634       Ni638   1.918   1_565  S
O634        C641   1.281       .  A
O635       Ni638   1.912   1_565  S
O635        C640   1.279       .  A
O636       Ni638   1.905       .  S
O636        C639   1.279       .  A
Ni637      Ni638   2.393   1_565  S
C639        C797   1.462       .  S
C640        C722   1.461       .  S
C641        C707   1.468       .  S
C642        C779   1.464       .  S
C643        H644   1.110       .  S
C643        C649   1.535       .  S
C643        C648   1.545       .  S
C645        H646   1.106       .  S
C645        C650   1.536       .  S
C645        C652   1.528       .  S
C647        C650   1.372       .  D
C647        C686   1.471       .  S
C648        C651   1.380       .  D
C648        C704   1.481       .  S
C649        C869   1.476       .  S
C650        C725   1.479       .  S
C651        C668   1.486       .  S
C652        C848   1.484       .  S
C653        C654   1.420   1_445  A
C653        C658   1.405   1_455  A
C653        C761   1.489       .  S
C654        C655   1.405   1_655  A
C654        C689   1.484       .  S
C655        C948   1.403   1_455  A
C655        H660   1.083       .  S
C656        C947   1.401   1_554  A
C656        C657   1.413   1_565  A
C656        C671   1.488       .  S
C657        C950   1.398       .  A
C657        C743   1.472       .  S
C658        C949   1.400       .  A
C658        H659   1.085       .  S
C661        N667   1.340   1_455  A
C661        C662   1.401   1_455  A
C662        C663   1.400       .  A
C662        H673   1.082       .  S
C663        C672   1.371       .  A
C664        N670   1.344       .  A
C664        C665   1.406       .  A
C665        C666   1.404       .  A
C665        H674   1.082       .  S
C666        C669   1.380       .  A
N667        H677   1.044       .  S
C668        C669   1.399       .  A
C669        H675   1.082       .  S
N670        H678   1.038       .  S
C671        C672   1.400       .  A
C672        H676   1.082       .  S
C679        N685   1.343       .  A
C679        C680   1.398       .  A
C680        C681   1.400       .  A
C680        H691   1.083       .  S
C681        C690   1.367       .  A
C682        N688   1.347       .  A
C682        C683   1.403       .  A
C683        C684   1.403       .  A
C683        H692   1.082       .  S
C684        C687   1.374       .  A
N685        H695   1.044       .  S
N685        C686   1.352       .  A
C687        H693   1.081       .  S
N688        H696   1.044       .  S
C689        C690   1.397       .  A
C690        H694   1.083       .  S
C697        N703   1.341       .  A
C697        C702   1.383       .  A
C697        C698   1.402       .  A
C698        C699   1.401       .  A
C698        H709   1.082       .  S
C699        C708   1.377       .  A
C699        C700   1.385       .  A
C700        N706   1.342       .  A
C700        C701   1.402       .  A
C701        C702   1.400       .  A
C701        H710   1.082       .  S
C702        C705   1.375       .  A
N703        H713   1.044       .  S
N703        C704   1.356       .  A
C704        C705   1.396       .  A
C705        H711   1.082       .  S
N706        H714   1.045       .  S
N706        C707   1.355       .  A
C707        C708   1.394       .  A
C708        H712   1.082       .  S
C715        N721   1.342       .  A
C715        C720   1.385       .  A
C715        C716   1.402       .  A
C716        C717   1.402       .  A
C716        H727   1.082       .  S
C717        C726   1.375       .  A
C717        C718   1.383       .  A
C718        N724   1.340       .  A
C718        C719   1.399       .  A
C719        C720   1.398       .  A
C719        H728   1.082       .  S
C720        C723   1.372       .  A
N721        H731   1.045       .  S
N721        C722   1.355       .  A
C722        C723   1.392       .  A
C723        H729   1.083       .  S
N724        H732   1.044       .  S
N724        C725   1.354       .  A
C725        C726   1.396       .  A
C726        H730   1.078       .  S
C733        N739   1.334       .  A
C733        C734   1.398       .  A
C734        C735   1.394       .  A
C734        H745   1.083       .  S
C735        C744   1.371       .  A
C736        N742   1.344       .  A
C736        C737   1.408       .  A
C737        C738   1.405       .  A
C737        H746   1.082       .  S
C738        C741   1.384       .  A
N739        H749   1.039       .  S
C740        C741   1.398       .  A
C741        H747   1.082       .  S
N742        H750   1.045       .  S
N742        C743   1.357       .  A
C744        H748   1.083       .  S
C751        N757   1.341       .  A
C751        C752   1.405   1_455  A
C752        C753   1.403       .  A
C752        H763   1.082       .  S
C753        C762   1.381       .  A
C754        N760   1.339       .  A
C754        C755   1.403       .  A
C755        C756   1.400       .  A
C755        H764   1.082       .  S
C756        C759   1.380       .  A
N757        H767   1.045   1_455  S
C758        C759   1.394       .  A
C759        H765   1.082       .  S
N760        H768   1.045       .  S
C761        C762   1.399   1_455  A
C762        H766   1.081       .  S
C769        N775   1.341       .  A
C769        C774   1.384       .  A
C769        C770   1.401       .  A
C770        C771   1.401       .  A
C770        H781   1.083       .  S
C771        C780   1.375       .  A
C771        C772   1.385       .  A
C772        N778   1.345       .  A
C772        C773   1.404       .  A
C773        C774   1.404       .  A
C773        H782   1.082       .  S
C774        C777   1.378       .  A
N775        H785   1.043       .  S
N775        C776   1.356       .  A
C776        C777   1.395       .  A
C777        H783   1.082       .  S
N778        H786   1.045       .  S
N778        C779   1.354       .  A
C779        C780   1.392       .  A
C780        H784   1.083       .  S
C787        N793   1.338       .  A
C787        C792   1.380       .  A
C787        C788   1.402       .  A
C788        C789   1.401       .  A
C788        H799   1.083       .  S
C789        C798   1.378       .  A
C789        C790   1.385       .  A
C790        N796   1.338       .  A
C790        C791   1.399       .  A
C791        C792   1.396       .  A
C791        H800   1.082       .  S
C792        C795   1.371       .  A
N793        H803   1.041       .  S
N793        C794   1.359       .  A
C794        C795   1.395       .  A
C795        H801   1.075       .  S
N796        H804   1.045       .  S
N796        C797   1.353       .  A
C797        C798   1.395       .  A
C798        H802   1.082       .  S
C805        N811   1.341       .  A
C805        C806   1.402       .  A
C806        C807   1.400       .  A
C806        H817   1.082       .  S
C807        C816   1.376       .  A
C808        N814   1.344       .  A
C808        C809   1.405       .  A
C809        C810   1.405       .  A
C809        H818   1.082       .  S
C810        C813   1.380       .  A
N811        H821   1.045       .  S
C812        C813   1.396       .  A
C813        H819   1.082       .  S
N814        H822   1.045       .  S
N814        C815   1.356       .  A
C816        H820   1.082       .  S
C823        N829   1.338       .  A
C823        C824   1.399       .  A
C824        C825   1.397       .  A
C824        H835   1.083       .  S
C825        C834   1.371       .  A
C826        N832   1.346       .  A
C826        C827   1.406       .  A
C827        C828   1.406       .  A
C827        H836   1.082       .  S
C828        C831   1.380       .  A
N829        H839   1.044       .  S
C830        C831   1.400       .  A
C831        H837   1.081       .  S
N832        H840   1.045       .  S
N832        C833   1.357       .  A
C834        H838   1.082       .  S
C841        N847   1.342       .  A
C841        C842   1.402       .  A
C842        C843   1.401       .  A
C842        H853   1.082       .  S
C843        C852   1.375       .  A
C844        N850   1.346       .  A
C844        C845   1.405       .  A
C845        C846   1.406       .  A
C845        H854   1.082       .  S
C846        C849   1.379       .  A
N847        H857   1.044       .  S
C848        C849   1.399       .  A
C849        H855   1.082       .  S
N850        H858   1.045       .  S
N850        C851   1.356       .  A
C852        H856   1.082       .  S
C859        N865   1.344       .  A
C859        C860   1.406       .  A
C860        C861   1.404       .  A
C860        H871   1.082       .  S
C861        C870   1.382       .  A
C862        N868   1.339       .  A
C862        C863   1.400       .  A
C863        C864   1.398       .  A
C863        H872   1.082       .  S
C864        C867   1.373       .  A
N865        H875   1.045       .  S
N865        C866   1.356       .  A
C867        H873   1.082       .  S
N868        H876   1.045       .  S
C869        C870   1.394       .  A
C870        H874   1.082       .  S
N877        H909   1.036       .  S
N877        C881   1.356       .  A
N878        C886   1.352       .  A
N879        H910   1.037       .  S
N879        C884   1.356       .  A
N880        C888   1.354       .  A
C881        C889   1.389       .  A
C881        C897   1.421       .  A
C882        C898   1.416       .  A
C882        C890   1.387       .  A
C883        C891   1.385   1_655  A
C883        C900   1.415       .  A
C884        C899   1.419       .  A
C884        C892   1.389       .  A
C885        C897   1.419       .  A
C885        C893   1.388       .  A
C886        C900   1.414       .  A
C886        C894   1.385       .  A
C887        C895   1.387       .  A
C887        C898   1.416       .  A
C888        C896   1.387       .  A
C888        C899   1.418       .  A
C889        H901   1.081       .  S
C890        H902   1.082       .  S
C891        H903   1.082       .  S
C892        H904   1.081   1_655  S
C893        H905   1.080       .  S
C894        H906   1.082       .  S
C895        H907   1.082       .  S
C896        H908   1.080       .  S
C897       C1158   1.491       .  S
C900       C1125   1.486       .  S
C911        H912   1.108       .  S
C911        C917   1.530       .  S
C911        C916   1.548       .  S
C913        H914   1.109       .  S
C913        C918   1.542       .  S
C913        C920   1.533       .  S
C915        C918   1.378       .  D
C915       C1032   1.475       .  S
C916        C919   1.380       .  D
C916       C1086   1.493       .  S
C917       C1104   1.480       .  S
C918       C1068   1.488       .  S
C919       C1050   1.475       .  S
C920       C1122   1.488       .  S
O921       Ni929   1.916       .  S
O921        C931   1.281       .  A
O922       Ni929   1.907   1_565  S
O922        C932   1.279       .  A
O923       Ni929   1.909   1_565  S
O923        C933   1.279       .  A
O924       Ni929   1.911       .  S
O924        C934   1.279       .  A
O925       Ni930   1.923       .  S
O925        C934   1.281       .  A
O926       Ni930   1.918   1_565  S
O926        C933   1.281       .  A
O927       Ni930   1.917   1_565  S
O927        C932   1.281       .  A
O928       Ni930   1.915       .  S
O928        C931   1.280       .  A
Ni929      Ni930   2.392       .  S
C931       C1089   1.468       .  S
C932       C1014   1.463       .  S
C933        C999   1.465       .  S
C934       C1071   1.465       .  S
C935        H936   1.109       .  S
C935        C941   1.536       .  S
C935        C940   1.545       .  S
C937        H938   1.106       .  S
C937        C942   1.535       .  S
C937        C944   1.526       .  S
C939        C942   1.375       .  D
C939        C978   1.474       .  S
C940        C943   1.382       .  D
C940        C996   1.480       .  S
C941       C1161   1.484       .  S
C942       C1017   1.479       .  S
C943        C960   1.491       .  S
C944       C1140   1.483       .  S
C945        C946   1.420   1_545  A
C945        C950   1.406   1_556  A
C945       C1053   1.486   1_655  S
C946        C947   1.403       .  A
C946        C981   1.484       .  S
C947        H952   1.084   1_655  S
C948        C949   1.416   1_565  A
C948        C963   1.497       .  S
C949       C1035   1.470       .  S
C950        H951   1.084       .  S
C953        N959   1.340       .  A
C953        C954   1.402   1_455  A
C954        C955   1.401       .  A
C954        H965   1.082       .  S
C955        C964   1.373       .  A
C956        N962   1.345       .  A
C956        C957   1.407       .  A
C957        C958   1.405       .  A
C957        H966   1.082       .  S
C958        C961   1.381       .  A
N959        H969   1.045   1_455  S
C960        C961   1.402       .  A
C961        H967   1.081       .  S
N962        H970   1.039       .  S
C963        C964   1.402       .  A
C964        H968   1.082       .  S
C971        N977   1.345       .  A
C971        C972   1.400       .  A
C972        C973   1.402       .  A
C972        H983   1.083       .  S
C973        C982   1.368       .  A
C974        N980   1.349       .  A
C974        C975   1.406       .  A
C975        C976   1.407       .  A
C975        H984   1.082       .  S
C976        C979   1.377       .  A
N977        H987   1.044       .  S
N977        C978   1.353       .  A
C979        H985   1.082       .  S
N980        H988   1.044       .  S
C981        C982   1.398       .  A
C982        H986   1.083       .  S
C989        N995   1.338       .  A
C989        C994   1.383       .  A
C989        C990   1.401       .  A
C990        C991   1.399       .  A
C990       H1001   1.083       .  S
C991       C1000   1.377       .  A
C991        C992   1.385       .  A
C992        N998   1.341       .  A
C992        C993   1.403       .  A
C993        C994   1.401       .  A
C993       H1002   1.082       .  S
C994        C997   1.378       .  A
N995       H1005   1.044       .  S
N995        C996   1.355       .  A
C996        C997   1.397       .  A
C997       H1003   1.082       .  S
N998       H1006   1.045       .  S
N998        C999   1.355       .  A
C999       C1000   1.393       .  A
C1000      H1004   1.082       .  S
C1007      N1013   1.342       .  A
C1007      C1012   1.386       .  A
C1007      C1008   1.401       .  A
C1008      C1009   1.400       .  A
C1008      H1019   1.082       .  S
C1009      C1018   1.374       .  A
C1009      C1010   1.383       .  A
C1010      N1016   1.340       .  A
C1010      C1011   1.401       .  A
C1011      C1012   1.400       .  A
C1011      H1020   1.083       .  S
C1012      C1015   1.374       .  A
N1013      H1023   1.045       .  S
N1013      C1014   1.354       .  A
C1014      C1015   1.393       .  A
C1015      H1021   1.083       .  S
N1016      H1024   1.044       .  S
N1016      C1017   1.356       .  A
C1017      C1018   1.394       .  A
C1018      H1022   1.078       .  S
C1025      N1031   1.333       .  A
C1025      C1026   1.396       .  A
C1026      C1027   1.393       .  A
C1026      H1037   1.083       .  S
C1027      C1036   1.370       .  A
C1028      N1034   1.344       .  A
C1028      C1029   1.408       .  A
C1029      C1030   1.406       .  A
C1029      H1038   1.082       .  S
C1030      C1033   1.385       .  A
N1031      H1041   1.039       .  S
C1032      C1033   1.399       .  A
C1033      H1039   1.082       .  S
N1034      H1042   1.045       .  S
N1034      C1035   1.358       .  A
C1036      H1040   1.082       .  S
C1043      N1049   1.340       .  A
C1043      C1044   1.404   1_455  A
C1044      C1045   1.402       .  A
C1044      H1055   1.082       .  S
C1045      C1054   1.382       .  A
C1046      N1052   1.339       .  A
C1046      C1047   1.404       .  A
C1047      C1048   1.400       .  A
C1047      H1056   1.082       .  S
C1048      C1051   1.380       .  A
N1049      H1059   1.045   1_455  S
C1050      C1051   1.394       .  A
C1051      H1057   1.082       .  S
N1052      H1060   1.045       .  S
C1053      C1054   1.398   1_455  A
C1054      H1058   1.081       .  S
C1061      N1067   1.341       .  A
C1061      C1066   1.382       .  A
C1061      C1062   1.402       .  A
C1062      C1063   1.401       .  A
C1062      H1073   1.083       .  S
C1063      C1072   1.375       .  A
C1063      C1064   1.385       .  A
C1064      N1070   1.345       .  A
C1064      C1065   1.404       .  A
C1065      C1066   1.404       .  A
C1065      H1074   1.082       .  S
C1066      C1069   1.377       .  A
N1067      H1077   1.042       .  S
N1067      C1068   1.357       .  A
C1068      C1069   1.397       .  A
C1069      H1075   1.082       .  S
N1070      H1078   1.045       .  S
N1070      C1071   1.355       .  A
C1071      C1072   1.393       .  A
C1072      H1076   1.083       .  S
C1079      N1085   1.340       .  A
C1079      C1084   1.380       .  A
C1079      C1080   1.401       .  A
C1080      C1081   1.400       .  A
C1080      H1091   1.082       .  S
C1081      C1090   1.375       .  A
C1081      C1082   1.385       .  A
C1082      N1088   1.343       .  A
C1082      C1083   1.403       .  A
C1083      C1084   1.403       .  A
C1083      H1092   1.082       .  S
C1084      C1087   1.375       .  A
N1085      H1095   1.041       .  S
N1085      C1086   1.358       .  A
C1086      C1087   1.399       .  A
C1087      H1093   1.075       .  S
N1088      H1096   1.045       .  S
N1088      C1089   1.356       .  A
C1089      C1090   1.394       .  A
C1090      H1094   1.082       .  S
C1097      N1103   1.341       .  A
C1097      C1098   1.402       .  A
C1098      C1099   1.401       .  A
C1098      H1109   1.082       .  S
C1099      C1108   1.377       .  A
C1100      N1106   1.344       .  A
C1100      C1101   1.406       .  A
C1101      C1102   1.405       .  A
C1101      H1110   1.082       .  S
C1102      C1105   1.382       .  A
N1103      H1113   1.045       .  S
C1104      C1105   1.396       .  A
C1105      H1111   1.082       .  S
N1106      H1114   1.045       .  S
N1106      C1107   1.356       .  A
C1108      H1112   1.082       .  S
C1115      N1121   1.338       .  A
C1115      C1116   1.400       .  A
C1116      C1117   1.398       .  A
C1116      H1127   1.083       .  S
C1117      C1126   1.372       .  A
C1118      N1124   1.346       .  A
C1118      C1119   1.407       .  A
C1119      C1120   1.407       .  A
C1119      H1128   1.082       .  S
C1120      C1123   1.381       .  A
N1121      H1131   1.044       .  S
C1122      C1123   1.400       .  A
C1123      H1129   1.082       .  S
N1124      H1132   1.045       .  S
N1124      C1125   1.357       .  A
C1126      H1130   1.082       .  S
C1133      N1139   1.340       .  A
C1133      C1134   1.401       .  A
C1134      C1135   1.399       .  A
C1134      H1145   1.082       .  S
C1135      C1144   1.375       .  A
C1136      N1142   1.344       .  A
C1136      C1137   1.404       .  A
C1137      C1138   1.404       .  A
C1137      H1146   1.082       .  S
C1138      C1141   1.378       .  A
N1139      H1149   1.044       .  S
C1140      C1141   1.399       .  A
C1141      H1147   1.082       .  S
N1142      H1150   1.045       .  S
N1142      C1143   1.355       .  A
C1144      H1148   1.082       .  S
C1151      N1157   1.345       .  A
C1151      C1152   1.407       .  A
C1152      C1153   1.406       .  A
C1152      H1163   1.082       .  S
C1153      C1162   1.383       .  A
C1154      N1160   1.338       .  A
C1154      C1155   1.399       .  A
C1155      C1156   1.397       .  A
C1155      H1164   1.083       .  S
C1156      C1159   1.372       .  A
N1157      H1167   1.045       .  S
N1157      C1158   1.358       .  A
C1159      H1165   1.082       .  S
N1160      H1168   1.045       .  S
C1161      C1162   1.397       .  A
C1162      H1166   1.082       .  S
