geometry optimzed in LAMMPS
_audit_creation_date              2020-12-01 
_audit_creation_method            'lammps2cif' 
_symmetry_space_group_name_H-M    'P1' 
_symmetry_Int_Tables_number       1 
_symmetry_cell_setting            triclinic 
loop_ 
_symmetry_equiv_pos_as_xyz 
  x,y,z 
_cell_length_a                    35.49712741 
_cell_length_b                    35.43302556714837 
_cell_length_c                    34.669075188350305 
_cell_angle_alpha                 90.07407950345029 
_cell_angle_beta                  89.90251273997806 
_cell_angle_gamma                 90.3424473936705 
loop_ 
_atom_site_label 
_atom_site_type_symbol 
_atom_site_fract_x 
_atom_site_fract_y 
_atom_site_fract_z 
_atom_site_charge 
O1          O  0.48659737  0.55668135  0.90078240    -0.80400
O2          O  0.56701882  0.55635524  0.04134990    -0.80500
O3          O  0.46229763  0.56977795  0.99944847    -0.80500
O4          O  0.57778637  0.57339016  0.95749473    -0.80400
O5          O  0.49091753  0.56020191  0.05291007    -0.80500
O6          O  0.56366014  0.55094829  0.89976039    -0.80400
O7          O  0.61723361  0.53387257  0.00994087    -0.80400
O8          O  0.43944488  0.53331919  0.93562129    -0.80500
C9          C  0.45194009  0.55533193  0.90920122     1.09300
C10         C  0.60328173  0.55499590  0.03571489     1.09100
C11         C  0.46791133  0.57911936  0.03422960     1.09300
C12         C  0.57927738  0.57578039  0.92098587     1.09200
O13         O  0.55390100  0.47053174  0.91475254    -0.80400
O14         O  0.47919412  0.48513820  0.04240445    -0.80500
O15         O  0.47016732  0.46210486  0.96485530    -0.80400
O16         O  0.57409312  0.47127804  0.00861184    -0.80400
O17         O  0.54655031  0.49026403  0.06020092    -0.80500
O18         O  0.47889798  0.47725134  0.90449355    -0.80400
O19         O  0.60198511  0.49980496  0.93983044    -0.80400
O20         O  0.42611452  0.50160200  0.01198597    -0.80500
Co21       Co  0.52105502  0.51426829  0.90825675     1.51500
Co22       Co  0.52045002  0.52350728  0.02554946     1.51700
Co23       Co  0.46897925  0.51560003  0.98238393     1.51600
Co24       Co  0.57277749  0.52318302  0.98299967     1.51500
O25         O  0.52043614  0.52181939  0.96557065    -1.42400
C26         C  0.58884076  0.47456565  0.91770899     1.09200
C27         C  0.44305142  0.48211775  0.03755803     1.09300
C28         C  0.46677454  0.45452238  0.92957610     1.09200
C29         C  0.56888918  0.46802333  0.04488431     1.09200
O30         O  0.57129347  0.94600657  0.45033192    -0.80400
O31         O  0.53973651  0.09446819  0.51720999    -0.80500
O32         O  0.54672907  0.04859464  0.40006334    -0.80500
O33         O  0.59361565  0.97832133  0.53404990    -0.80400
O34         O  0.56679462  0.07548804  0.45141720    -0.80500
O35         O  0.55518778  0.93167784  0.52037323    -0.80400
O36         O  0.58543944  0.05650068  0.53326091    -0.80400
O37         O  0.55249649  0.97507359  0.39989787    -0.80500
C38         C  0.57451942  0.95217989  0.41503179     1.09300
C39         C  0.57124841  0.08913389  0.53329370     1.09100
C40         C  0.56944015  0.07101462  0.41599318     1.09300
C41         C  0.58697859  0.94316033  0.53260339     1.09200
O42         O  0.48041805  0.96580645  0.51374813    -0.80400
O43         O  0.49396967  0.10006772  0.45228862    -0.80500
O44         O  0.47791518  0.96238498  0.43274672    -0.80400
O45         O  0.50801435  0.04697336  0.55889632    -0.80400
O46         O  0.47372541  0.04734680  0.50699049    -0.80500
O47         O  0.50361804  0.91331563  0.46314197    -0.80400
O48         O  0.51750176  0.97234089  0.56290065    -0.80400
O49         O  0.47119800  0.04497516  0.43403625    -0.80500
Co50       Co  0.52530366  0.95859850  0.47986120     1.51500
Co51       Co  0.51976619  0.05970809  0.47644723     1.51700
Co52       Co  0.51491125  0.00805094  0.42488955     1.51600
Co53       Co  0.55107922  0.01344123  0.54283498     1.51500
O54         O  0.54068202  0.01041219  0.48399165    -1.42400
C55         C  0.48615928  0.96172673  0.54948401     1.09200
C56         C  0.47061965  0.08138505  0.43213117     1.09300
C57         C  0.47939754  0.92636332  0.43994856     1.09200
C58         C  0.47617178  0.05167781  0.54298494     1.09200
O59         O  0.98402809  0.41739962  0.44593545    -0.80400
O60         O  0.12141022  0.47014626  0.50626828    -0.80500
O61         O  0.05839400  0.46942246  0.40276670    -0.80500
O62         O  0.00159416  0.46425489  0.56664179    -0.80400
O63         O  0.07384850  0.43591292  0.45420193    -0.80500
O64         O  0.99535616  0.42037214  0.52396577    -0.80400
O65         O  0.07154336  0.45381455  0.54013903    -0.80400
O66         O  0.98228928  0.46009830  0.40023889    -0.80500
C67         C  0.97673046  0.42635641  0.41154776     1.09300
C68         C  0.10708567  0.45059418  0.53310824     1.09100
C69         C  0.07472620  0.44101681  0.41797011     1.09300
C70         C  0.99503197  0.42999204  0.55894343     1.09200
O71         O  0.94909729  0.48959878  0.52687533    -0.80400
O72         O  0.09726717  0.51165804  0.44575670    -0.80500
O73         O  0.97134187  0.53234440  0.43602648    -0.80400
O74         O  0.05349946  0.52097279  0.57525191    -0.80400
O75         O  0.07865023  0.53202335  0.51833680    -0.80500
O76         O  0.93571567  0.48317309  0.45078859    -0.80400
O77         O  0.99227666  0.53488906  0.52916232    -0.80400
O78         O  0.04763764  0.54558418  0.43551883    -0.80500
Co79       Co  0.96929688  0.45334488  0.48664335     1.51500
Co80       Co  0.07272867  0.48129197  0.48711327     1.51700
Co81       Co  0.01527528  0.50169455  0.42209436     1.51600
Co82       Co  0.03214049  0.49681953  0.53102485     1.51500
O83         O  0.01725706  0.48275511  0.47715289    -1.42400
C84         C  0.95882747  0.52348763  0.53512763     1.09200
C85         C  0.08282832  0.54165635  0.43327756     1.09300
C86         C  0.93918054  0.51697499  0.43880253     1.09200
C87         C  0.07576366  0.54034626  0.55458532     1.09200
C88         C  0.77727616  0.30013207  0.25801749     0.79900
N89         N  0.76387628  0.26939263  0.27708309    -0.78400
C90         C  0.73010415  0.25401503  0.26747236     0.82400
N91         N  0.70953237  0.26964519  0.23870427    -0.78300
C92         C  0.72219992  0.30083562  0.21978493     0.82500
N93         N  0.75610776  0.31608607  0.22978858    -0.80000
C94         C  0.74502097  0.68052208  0.31838473     0.79900
N95         N  0.73756025  0.66684848  0.28258995    -0.78400
C96         C  0.71647950  0.68698278  0.25743180     0.82400
N97         N  0.70281437  0.72110391  0.26804471    -0.78300
C98         C  0.71068666  0.73531482  0.30338618     0.82500
N99         N  0.73137212  0.71482473  0.32870386    -0.80000
C100        C  0.73716161  0.32062472  0.73100773     0.79900
N101        N  0.77269371  0.32640122  0.71774576    -0.78400
C102        C  0.78529887  0.30699263  0.68663273     0.82400
N103        N  0.76210173  0.28226691  0.66839565    -0.78300
C104        C  0.72657500  0.27616098  0.68158324     0.82500
N105        N  0.71427197  0.29540901  0.71294687    -0.80000
C106        C  0.31772165  0.74270239  0.29304973     0.79900
N107        N  0.33293373  0.73118031  0.25914828    -0.78400
C108        C  0.31553435  0.70427535  0.23770981     0.82400
N109        N  0.28326870  0.68788116  0.25076651    -0.78300
C110        C  0.26802390  0.69874313  0.28497589     0.82500
N111        N  0.28552598  0.72615538  0.30580429    -0.80000
C112        C  0.32164749  0.71203951  0.70863894     0.79900
N113        N  0.33578951  0.74551168  0.69612593    -0.78400
C114        C  0.32000749  0.76348612  0.66565852     0.82400
N115        N  0.28998451  0.74751787  0.64721009    -0.78300
C116        C  0.27552900  0.71400817  0.65976690     0.82500
N117        N  0.29163609  0.69630598  0.69029048    -0.80000
C118        C  0.34416111  0.29928910  0.73115709     0.79900
N119        N  0.35739992  0.26696399  0.71523624    -0.78400
C120        C  0.34053846  0.25213542  0.68347939     0.82400
N121        N  0.31081791  0.27009204  0.66728864    -0.78300
C122        C  0.29733289  0.30245137  0.68311307     0.82500
N123        N  0.31413417  0.31688128  0.71514335    -0.80000
C124        C  0.73799449  0.70781169  0.72524360     0.79900
N125        N  0.76744109  0.68797045  0.71071576    -0.78400
C126        C  0.78200301  0.69680242  0.67554434     0.82400
N127        N  0.76625180  0.72479474  0.65451691    -0.78300
C128        C  0.73742919  0.74531659  0.66891448     0.82500
N129        N  0.72352726  0.73670584  0.70442926    -0.80000
C130        C  0.32123426  0.25375967  0.26683467     0.79900
N131        N  0.33503460  0.27344986  0.23629327    -0.78400
C132        C  0.31874488  0.30626041  0.22517620     0.82400
N133        N  0.28814829  0.31935827  0.24436741    -0.78300
C134        C  0.27400762  0.29974691  0.27472407     0.82500
N135        N  0.29101043  0.26757088  0.28615575    -0.80000
C136        C  0.13049005  0.42354805  0.55535039     0.01000
C137        C  0.16207599  0.40614613  0.53782892     0.03900
C138        C  0.18657116  0.38402116  0.56004495    -0.12200
C139        C  0.17998538  0.37928555  0.59972105     0.23200
C140        C  0.14765608  0.39446830  0.61691099    -0.12800
C141        C  0.12241020  0.41569733  0.59471134     0.04600
C142        C  0.20831201  0.35999050  0.62366553     0.27000
C143        C  0.20491619  0.32120953  0.63139473    -0.13500
C144        C  0.23315374  0.30271375  0.65244616     0.05100
C145        C  0.26578678  0.32269718  0.66437840    -0.09400
C146        C  0.26857209  0.36192647  0.65692877     0.05900
C147        C  0.23943996  0.38055809  0.63746767    -0.13800
Br148      Br  0.13899743  0.38724229  0.67150826    -0.05900
Br149      Br  0.17147022  0.41037988  0.48307517    -0.00200
Br150      Br  0.22575013  0.25046925  0.66614710     0.00200
Br151      Br  0.24213531  0.43443485  0.62886156    -0.04200
Br152      Br  0.07749449  0.43350762  0.61981359     0.00300
Br153      Br  0.22986492  0.36045474  0.53656012    -0.03500
Br154      Br  0.16169779  0.29358811  0.61239949    -0.04400
Br155      Br  0.31312152  0.39045310  0.67011736    -0.00400
C156        C  0.24434358  0.69502271  0.63885235     0.01000
C157        C  0.20676997  0.70652853  0.64437539     0.03900
C158        C  0.17684334  0.68480467  0.62903614    -0.12200
C159        C  0.18442705  0.65212073  0.60711754     0.23200
C160        C  0.22211201  0.64215470  0.59943549    -0.12800
C161        C  0.25193912  0.66314402  0.61578839     0.04600
C162        C  0.15322396  0.62607557  0.59543901     0.27000
C163        C  0.14360352  0.59546071  0.61943399    -0.13500
C164        C  0.11686829  0.56836498  0.60727078     0.05100
C165        C  0.09862234  0.57213252  0.57113737    -0.09400
C166        C  0.10553852  0.60514137  0.54915399     0.05900
C167        C  0.13383212  0.63108159  0.56043071    -0.13800
Br168      Br  0.23267307  0.59899207  0.56730301    -0.05900
Br169      Br  0.19638940  0.75101779  0.67454308    -0.00200
Br170      Br  0.10714731  0.52573588  0.64026609     0.00200
Br171      Br  0.14740157  0.67253785  0.52713099    -0.04200
Br172      Br  0.30336639  0.64779421  0.60734499     0.00300
Br173      Br  0.12538555  0.69855527  0.63958208    -0.03500
Br174      Br  0.16837373  0.59014575  0.66872205    -0.04400
Br175      Br  0.07457402  0.61649744  0.50499842    -0.00400
C176        C  0.10653142  0.57027672  0.41372055     0.01000
C177        C  0.09562229  0.58420906  0.37718858     0.03900
C178        C  0.11994459  0.60808708  0.35642630    -0.12200
C179        C  0.15453259  0.61931721  0.37251481     0.23200
C180        C  0.16483526  0.60702337  0.40955849    -0.12800
C181        C  0.14156673  0.58148455  0.42962390     0.04600
C182        C  0.18201361  0.64001408  0.34837172     0.27000
C183        C  0.20681560  0.61948519  0.32484453    -0.13500
C184        C  0.23267327  0.63849864  0.30097704     0.05100
C185        C  0.23528432  0.67848421  0.30223808    -0.09400
C186        C  0.20862521  0.69889951  0.32434995     0.05900
C187        C  0.18210706  0.67962146  0.34732013    -0.13800
Br188      Br  0.21159500  0.62433733  0.43201393    -0.05900
Br189      Br  0.04959169  0.56739901  0.35289722    -0.00200
Br190      Br  0.26356609  0.60836090  0.26723425     0.00200
Br191      Br  0.14589166  0.70716917  0.37771535    -0.04200
Br192      Br  0.15906837  0.56105016  0.47795931     0.00300
Br193      Br  0.10739749  0.62345998  0.30457460    -0.03500
Br194      Br  0.20560672  0.56486656  0.32620512    -0.04400
Br195      Br  0.20657062  0.75333483  0.32174025    -0.00400
C196        C  0.24147941  0.31422088  0.29642781     0.01000
C197        C  0.24545001  0.32405939  0.33564028     0.03900
C198        C  0.21495948  0.33996903  0.35567935    -0.12200
C199        C  0.18076919  0.34683348  0.33638440     0.23200
C200        C  0.17634355  0.33555103  0.29768282    -0.12800
C201        C  0.20652015  0.31877440  0.27788079     0.04600
C202        C  0.15147059  0.37016105  0.35518748     0.27000
C203        C  0.12365811  0.35367352  0.37885357    -0.13500
C204        C  0.09730661  0.37667031  0.39806537     0.05100
C205        C  0.09890944  0.41633335  0.39387445    -0.09400
C206        C  0.12613709  0.43251782  0.36881985     0.05900
C207        C  0.15222839  0.40944884  0.34964935    -0.13800
Br208      Br  0.12938845  0.34465105  0.27149318    -0.05900
Br209      Br  0.29334513  0.31823332  0.36131185    -0.00200
Br210      Br  0.05826935  0.35359633  0.42898507     0.00200
Br211      Br  0.19015490  0.43167001  0.31639278    -0.04200
Br212      Br  0.19970395  0.30111381  0.22570119     0.00300
Br213      Br  0.22047331  0.35383039  0.40915539    -0.03500
Br214      Br  0.12224025  0.29962414  0.38512766    -0.04400
Br215      Br  0.13019963  0.48639310  0.36190011    -0.00400
C216        C  0.80935822  0.67166284  0.65698144     0.01000
C217        C  0.84756406  0.67212141  0.66792622     0.03900
C218        C  0.87335707  0.64813037  0.64926471    -0.12200
C219        C  0.86092722  0.62415735  0.61936094     0.23200
C220        C  0.82265602  0.62346858  0.60883183    -0.12800
C221        C  0.79696806  0.64729933  0.62739217     0.04600
C222        C  0.88755556  0.59909890  0.59889610     0.27000
C223        C  0.90673960  0.61205189  0.56584509    -0.13500
C224        C  0.92944579  0.58719366  0.54441939     0.05100
C225        C  0.93208710  0.54886999  0.55530152    -0.09400
C226        C  0.91014004  0.53552375  0.58668572     0.05900
C227        C  0.88981131  0.56098348  0.60963113    -0.13800
Br228      Br  0.80536089  0.58918533  0.56934445    -0.05900
Br229      Br  0.86461798  0.70669279  0.70723355    -0.00200
Br230      Br  0.95330455  0.60488618  0.49769076     0.00200
Br231      Br  0.86459049  0.54379872  0.65590460    -0.04200
Br232      Br  0.74458426  0.64622032  0.61238225     0.00300
Br233      Br  0.92545553  0.64739588  0.66485432    -0.03500
Br234      Br  0.90085768  0.66368944  0.54947370    -0.04400
Br235      Br  0.90430839  0.48246012  0.59704716    -0.00400
C236        C  0.98169208  0.40279987  0.58898869     0.01000
C237        C  0.97608457  0.36424584  0.57942347     0.03900
C238        C  0.94923738  0.34268452  0.59975898    -0.12200
C239        C  0.92787641  0.35968389  0.62911847     0.23200
C240        C  0.93827374  0.39557576  0.64305462    -0.12800
C241        C  0.96705101  0.41611255  0.62451283     0.04600
C242        C  0.89235676  0.34184448  0.64241023     0.27000
C243        C  0.85990155  0.34465784  0.61916819    -0.13500
C244        C  0.82500241  0.33173309  0.63309120     0.05100
C245        C  0.82249874  0.31595057  0.67029889    -0.09400
C246        C  0.85522661  0.31124429  0.69269258     0.05900
C247        C  0.89017999  0.32429271  0.67877912    -0.13800
Br248      Br  0.91039544  0.41831635  0.68489605    -0.05900
Br249      Br  0.00521431  0.34035142  0.53921932    -0.00200
Br250      Br  0.78029805  0.33809992  0.60201227     0.00200
Br251      Br  0.93492251  0.31915867  0.70976188    -0.04200
Br252      Br  0.98558597  0.46183868  0.64858922     0.00300
Br253      Br  0.93947136  0.29077129  0.58592838    -0.03500
Br254      Br  0.86282484  0.36790042  0.56884054    -0.04400
Br255      Br  0.85220518  0.28619190  0.74199498    -0.00400
C256        C  0.81286486  0.31792171  0.27109642     0.01000
C257        C  0.81272238  0.35495463  0.28613955     0.03900
C258        C  0.84502198  0.36947021  0.30453793    -0.12200
C259        C  0.87732478  0.34684539  0.30881398     0.23200
C260        C  0.87826466  0.31071014  0.29185032    -0.12800
C261        C  0.84620084  0.29643668  0.27268394     0.04600
C262        C  0.90792582  0.35991551  0.33500369     0.27000
C263        C  0.93990323  0.37885134  0.32049200    -0.13500
C264        C  0.96441451  0.39810953  0.34589926     0.05100
C265        C  0.95650335  0.39924168  0.38592835    -0.09400
C266        C  0.92586594  0.37763834  0.40054421     0.05900
C267        C  0.90231838  0.35745670  0.37512367    -0.13800
Br268      Br  0.92278225  0.28018112  0.29655431    -0.05900
Br269      Br  0.76734175  0.38473556  0.28507912    -0.00200
Br270      Br  0.00873156  0.42293431  0.32559457     0.00200
Br271      Br  0.86060437  0.32790431  0.39491111    -0.04200
Br272      Br  0.84780761  0.24734337  0.24857589     0.00300
Br273      Br  0.84444644  0.41978056  0.32611665    -0.03500
Br274      Br  0.94908943  0.37948156  0.26565786    -0.04400
Br275      Br  0.91249129  0.37857717  0.45467313    -0.00400
C276        C  0.76677900  0.65737423  0.34609446     0.01000
C277        C  0.75978931  0.61807481  0.34813870     0.03900
C278        C  0.78537787  0.59440729  0.36701867    -0.12200
C279        C  0.81655151  0.61006969  0.38633300     0.23200
C280        C  0.82064384  0.64951490  0.38910960    -0.12800
C281        C  0.79613784  0.67329471  0.36860007     0.04600
C282        C  0.84708344  0.58515485  0.39994442     0.27000
C283        C  0.84399366  0.56594216  0.43528303    -0.13500
C284        C  0.87303735  0.54179143  0.44739940     0.05100
C285        C  0.90595573  0.53797816  0.42471139    -0.09400
C286        C  0.90768081  0.55549206  0.38814968     0.05900
C287        C  0.87860240  0.57937167  0.37608407    -0.13800
Br288      Br  0.86118173  0.67046633  0.41962248    -0.05900
Br289      Br  0.71421305  0.59646810  0.32697339    -0.00200
Br290      Br  0.86657105  0.51357879  0.49434006     0.00200
Br291      Br  0.88158255  0.60407243  0.32648888    -0.04200
Br292      Br  0.80486634  0.72713207  0.37020362     0.00300
Br293      Br  0.77900448  0.54030087  0.36451748    -0.03500
Br294      Br  0.79983297  0.57309159  0.46681910    -0.04400
Br295      Br  0.94789075  0.54386662  0.35260273    -0.00400
C296        C  0.58968753  0.11971548  0.55494307     0.01000
C297        C  0.60271095  0.15245535  0.53599411     0.03900
C298        C  0.62289310  0.18002165  0.55676548    -0.12200
C299        C  0.62862368  0.17554131  0.59670427     0.23200
C300        C  0.61323510  0.14414523  0.61607997    -0.12800
C301        C  0.59433580  0.11594400  0.59515092     0.04600
C302        C  0.65348716  0.20192512  0.61791497     0.27000
C303        C  0.69077747  0.19120844  0.62584823    -0.13500
C304        C  0.71405228  0.21466462  0.64825085     0.05100
C305        C  0.70103041  0.25036685  0.66042565    -0.09400
C306        C  0.66400833  0.26176123  0.65089471     0.05900
C307        C  0.63992440  0.23696007  0.63082007    -0.13800
Br308      Br  0.61880267  0.13958344  0.67128760    -0.05900
Br309      Br  0.59435565  0.15894900  0.48147566    -0.00200
Br310      Br  0.76292147  0.19641319  0.66377484     0.00200
Br311      Br  0.58831267  0.25077808  0.62083352    -0.04200
Br312      Br  0.57435584  0.07242724  0.62190227     0.00300
Br313      Br  0.64415227  0.22309095  0.53038461    -0.03500
Br314      Br  0.71003719  0.14439702  0.60531313    -0.04400
Br315      Br  0.64669430  0.31216221  0.66235889    -0.00400
C316        C  0.44431933  0.06755329  0.56617893     0.01000
C317        C  0.44742441  0.06900473  0.60687522     0.03900
C318        C  0.42817615  0.09688157  0.62784895    -0.12200
C319        C  0.40278984  0.12079399  0.60889003     0.23200
C320        C  0.39377593  0.11410050  0.56997947    -0.12800
C321        C  0.41410717  0.08716574  0.54859811     0.04600
C322        C  0.38694183  0.15402092  0.62911807     0.27000
C323        C  0.35315521  0.15095599  0.65028706    -0.13500
C324        C  0.33812819  0.18298739  0.66868910     0.05100
C325        C  0.35628740  0.21828534  0.66494800    -0.09400
C326        C  0.38981594  0.22137656  0.64340842     0.05900
C327        C  0.40556509  0.18915337  0.62623916    -0.13800
Br328      Br  0.35456679  0.14327823  0.54583351    -0.05900
Br329      Br  0.47530359  0.03106604  0.63453847    -0.00200
Br330      Br  0.29332176  0.17835840  0.69981834     0.00200
Br331      Br  0.45291990  0.19292554  0.59901361    -0.04200
Br332      Br  0.39814571  0.07648940  0.49657187     0.00300
Br333      Br  0.43835034  0.10397061  0.68200148    -0.03500
Br334      Br  0.32762328  0.10288664  0.65377986    -0.04400
Br335      Br  0.41326162  0.27014076  0.63611878    -0.00400
C336        C  0.44216386  0.10094620  0.40788121     0.01000
C337        C  0.42834614  0.08353168  0.37358993     0.03900
C338        C  0.40538273  0.10393188  0.34810688    -0.12200
C339        C  0.39612094  0.14149376  0.35637905     0.23200
C340        C  0.40756416  0.15819444  0.39123695    -0.12800
C341        C  0.43057922  0.13824916  0.41696201     0.04600
C342        C  0.37672376  0.16482076  0.32735144     0.27000
C343        C  0.39816453  0.18831395  0.30304707    -0.13500
C344        C  0.38036393  0.21606530  0.28070323     0.05100
C345        C  0.34048272  0.21957481  0.28195747    -0.09400
C346        C  0.31910376  0.19205195  0.30233562     0.05900
C347        C  0.33725678  0.16575173  0.32607395    -0.13800
Br348      Br  0.39198322  0.20914024  0.40304124    -0.05900
Br349      Br  0.44229640  0.03283543  0.35857756    -0.00200
Br350      Br  0.41220922  0.24958945  0.25097469     0.00200
Br351      Br  0.30827595  0.13231406  0.35870148    -0.04200
Br352      Br  0.44517665  0.16311714  0.46445745     0.00300
Br353      Br  0.38739250  0.08118221  0.30083446    -0.03500
Br354      Br  0.45242826  0.18352522  0.30239029    -0.04400
Br355      Br  0.26490291  0.18889228  0.29728250    -0.00400
C356        C  0.71348962  0.22361692  0.29129028     0.01000
C357        C  0.70500429  0.18825032  0.27477141     0.03900
C358        C  0.68604723  0.16053962  0.29662608    -0.12200
C359        C  0.67415245  0.16860904  0.33457911     0.23200
C360        C  0.68375773  0.20355360  0.35155445    -0.12800
C361        C  0.70376030  0.23084712  0.33010535     0.04600
C362        C  0.64799577  0.14223276  0.35481394     0.27000
C363        C  0.60953519  0.14186138  0.34471334    -0.13500
C364        C  0.58420248  0.11735466  0.36357076     0.05100
C365        C  0.59694142  0.09369163  0.39349424    -0.09400
C366        C  0.63543742  0.09435165  0.40391641     0.05900
C367        C  0.66097754  0.11819869  0.38425072    -0.13800
Br368      Br  0.66770746  0.21479288  0.40353069    -0.05900
Br369      Br  0.71893460  0.17803336  0.22199722    -0.00200
Br370      Br  0.53151399  0.11835779  0.34996092     0.00200
Br371      Br  0.71370278  0.11831092  0.39771429    -0.04200
Br372      Br  0.71524743  0.27924309  0.35314024     0.00300
Br373      Br  0.67532872  0.11174021  0.27438357    -0.03500
Br374      Br  0.59130562  0.17631406  0.30593198    -0.04400
Br375      Br  0.65337436  0.06231769  0.44489851    -0.00400
C376        C  0.45854790  0.94115033  0.57468095     0.01000
C377        C  0.47091986  0.91792201  0.60563306     0.03900
C378        C  0.44540433  0.89296492  0.62386071    -0.12200
C379        C  0.40770044  0.89088017  0.61155945     0.23200
C380        C  0.39448854  0.91670709  0.58406938    -0.12800
C381        C  0.41954923  0.94250912  0.56666153     0.04600
C382        C  0.38302273  0.85936088  0.62478878     0.27000
C383        C  0.38133485  0.82592752  0.60276959    -0.13500
C384        C  0.35939199  0.79514106  0.61542326     0.05100
C385        C  0.33881273  0.79761076  0.65013289    -0.09400
C386        C  0.33995376  0.83131219  0.67188314     0.05900
C387        C  0.36207838  0.86214711  0.65925526    -0.13800
Br388      Br  0.34212847  0.91556007  0.56928016    -0.05900
Br389      Br  0.52252634  0.91854614  0.62361464    -0.00200
Br390      Br  0.35964463  0.74861853  0.58643829     0.00200
Br391      Br  0.36466672  0.90783502  0.68947752    -0.04200
Br392      Br  0.39946309  0.98185122  0.53489987     0.00300
Br393      Br  0.46221032  0.86015895  0.66477034    -0.03500
Br394      Br  0.41040301  0.82196279  0.55581567    -0.04400
Br395      Br  0.31103036  0.83518503  0.71885297    -0.00400
C396        C  0.61513807  0.91537010  0.54665702     0.01000
C397        C  0.63833443  0.92386826  0.57886968     0.03900
C398        C  0.66071027  0.89552995  0.59539229    -0.12200
C399        C  0.66131748  0.85914640  0.57918916     0.23200
C400        C  0.64109997  0.85139202  0.54532956    -0.12800
C401        C  0.61755101  0.87903903  0.52944251     0.04600
C402        C  0.68082593  0.82831254  0.59964545     0.27000
C403        C  0.72008666  0.82443219  0.59663051    -0.13500
C404        C  0.73892001  0.79764900  0.61940285     0.05100
C405        C  0.71806936  0.77347928  0.64428938    -0.09400
C406        C  0.67817880  0.77561172  0.64458652     0.05900
C407        C  0.65984876  0.80360230  0.62315044    -0.13800
Br408      Br  0.64521780  0.80220131  0.52148703    -0.05900
Br409      Br  0.63861382  0.97322403  0.60272769    -0.00200
Br410      Br  0.79328157  0.79593733  0.61690065     0.00200
Br411      Br  0.60565894  0.80829900  0.62595745    -0.04200
Br412      Br  0.58927447  0.86594155  0.48391299     0.00300
Br413      Br  0.68937983  0.90576217  0.64161693    -0.03500
Br414      Br  0.74771766  0.85608775  0.56099982    -0.04400
Br415      Br  0.64743550  0.73882613  0.67163097    -0.00400
C416        C  0.60177173  0.93060261  0.39112061     0.01000
C417        C  0.59052704  0.91557118  0.35488692     0.03900
C418        C  0.61299248  0.88843785  0.33630964    -0.12200
C419        C  0.64666666  0.87635213  0.35349648     0.23200
C420        C  0.66004501  0.89436559  0.38700524    -0.12800
C421        C  0.63768446  0.92140260  0.40587541     0.04600
C422        C  0.66418467  0.84067825  0.34038139     0.27000
C423        C  0.65464649  0.80691387  0.35962399    -0.13500
C424        C  0.66994409  0.77250929  0.34744624     0.05100
C425        C  0.69442879  0.77156022  0.31549879    -0.09400
C426        C  0.70301574  0.80508275  0.29525803     0.05900
C427        C  0.68857731  0.83979827  0.30828910    -0.13800
Br428      Br  0.70823102  0.88012324  0.40793792    -0.05900
Br429      Br  0.54288251  0.92864626  0.33156690    -0.00200
Br430      Br  0.65520273  0.72632012  0.37314045     0.00200
Br431      Br  0.70241993  0.88611020  0.28264934    -0.04200
Br432      Br  0.65658029  0.94555060  0.45191072     0.00300
Br433      Br  0.59642328  0.86548368  0.28859831    -0.03500
Br434      Br  0.61980401  0.80760655  0.40235018    -0.04400
Br435      Br  0.73454095  0.80354171  0.24984767    -0.00400
C436        C  0.45236366  0.89993945  0.42150717     0.01000
C437        C  0.46569097  0.86532969  0.40634332     0.03900
C438        C  0.44084507  0.84038569  0.38773740    -0.12200
C439        C  0.40268936  0.84980435  0.38372179     0.23200
C440        C  0.38903606  0.88393157  0.39883430    -0.12800
C441        C  0.41379488  0.90911987  0.41756439     0.04600
C442        C  0.37771623  0.82444127  0.36145419     0.27000
C443        C  0.37389895  0.82983482  0.32149699    -0.13500
C444        C  0.35281308  0.80407574  0.29942182     0.05100
C445        C  0.33731876  0.77140881  0.31691602    -0.09400
C446        C  0.34173908  0.76590181  0.35716684     0.05900
C447        C  0.36089359  0.79306274  0.37944884    -0.13800
Br448      Br  0.33636196  0.89602472  0.39327698    -0.05900
Br449      Br  0.51851661  0.85261976  0.40764875    -0.00200
Br450      Br  0.34460658  0.81483949  0.24550047     0.00200
Br451      Br  0.36557749  0.78688781  0.43459179    -0.04200
Br452      Br  0.39407549  0.95563546  0.43784616     0.00300
Br453      Br  0.45917642  0.79351490  0.36633867    -0.03500
Br454      Br  0.39922977  0.87180921  0.29687823    -0.04400
Br455      Br  0.32526391  0.71978758  0.38191915    -0.00400
C456        C  0.58927821  0.44081755  0.06989400     0.01000
C457        C  0.59442583  0.40324754  0.05795859     0.03900
C458        C  0.61499628  0.37801342  0.08105492    -0.12200
C459        C  0.63063131  0.39011961  0.11634903     0.23200
C460        C  0.62491401  0.42738317  0.12900215    -0.12800
C461        C  0.60332885  0.45238446  0.10665836     0.04600
C462        C  0.65294940  0.36385743  0.14062867     0.27000
C463        C  0.63669562  0.34758182  0.17380773    -0.13500
C464        C  0.65900981  0.32660300  0.19952998     0.05100
C465        C  0.69766037  0.32033809  0.19130604    -0.09400
C466        C  0.71310999  0.33473315  0.15659754     0.05900
C467        C  0.69110460  0.35726231  0.13200292    -0.13800
Br468      Br  0.64788831  0.44427492  0.17676387    -0.05900
Br469      Br  0.57014289  0.38533893  0.01179254    -0.00200
Br470      Br  0.63640646  0.30942091  0.24724267     0.00200
Br471      Br  0.71347413  0.38058738  0.08709354    -0.04200
Br472      Br  0.59369922  0.50209891  0.12792927     0.00300
Br473      Br  0.62187432  0.32672203  0.06430871    -0.03500
Br474      Br  0.58385332  0.35532150  0.18454884    -0.04400
Br475      Br  0.76391236  0.32242861  0.14138907     0.01400
C476        C  0.70424264  0.67004616  0.22097230     0.01000
C477        C  0.72677323  0.67312438  0.18765262     0.03900
C478        C  0.71358263  0.65862433  0.15236088    -0.12200
C479        C  0.67825013  0.64044257  0.15076353     0.23200
C480        C  0.65579231  0.63729745  0.18414849    -0.12800
C481        C  0.66891995  0.65185448  0.21928470     0.04600
C482        C  0.66557673  0.62158767  0.11511180     0.27000
C483        C  0.63926637  0.63920296  0.09083776    -0.13500
C484        C  0.62080687  0.61792869  0.06231723     0.05100
C485        C  0.62841122  0.57910066  0.05869502    -0.09400
C486        C  0.65889874  0.56317914  0.07883031     0.05900
C487        C  0.67675706  0.58417957  0.10788568    -0.13800
Br488      Br  0.60709883  0.61270771  0.18164023    -0.05900
Br489      Br  0.77587084  0.69638737  0.19074496    -0.00200
Br490      Br  0.58711963  0.64227158  0.02654944     0.00200
Br491      Br  0.71450641  0.56085548  0.13979070    -0.04200
Br492      Br  0.63910692  0.64573131  0.26549476     0.00300
Br493      Br  0.74349114  0.66353942  0.10613559    -0.03500
Br494      Br  0.62743662  0.69178636  0.09796609    -0.04400
Br495      Br  0.67572859  0.51250483  0.06783511    -0.00400
C496        C  0.44619516  0.60844243  0.05503183     0.01000
C497        C  0.40676917  0.61127002  0.04945377     0.03900
C498        C  0.38430983  0.62896026  0.07761944    -0.12200
C499        C  0.40113613  0.64569020  0.11020558     0.23200
C500        C  0.44053120  0.64604309  0.11410640    -0.12800
C501        C  0.46297664  0.62680858  0.08726409     0.04600
C502        C  0.37745759  0.66021805  0.14204505     0.27000
C503        C  0.35899929  0.69513248  0.13848581    -0.13500
C504        C  0.33651244  0.70853795  0.16895787     0.05100
C505        C  0.33516037  0.68862249  0.20407018    -0.09400
C506        C  0.35509290  0.65465937  0.20817577     0.05900
C507        C  0.37445848  0.63942837  0.17658311    -0.13800
Br508      Br  0.46354665  0.67054178  0.15819691    -0.05900
Br509      Br  0.38205590  0.58704731  0.00630197    -0.00200
Br510      Br  0.30734825  0.75375780  0.16247933     0.00200
Br511      Br  0.39716590  0.59020902  0.18087811    -0.04200
Br512      Br  0.51645899  0.62347796  0.09760068     0.00300
Br513      Br  0.33004321  0.62690730  0.07385552    -0.03500
Br514      Br  0.36584704  0.72504712  0.09250634    -0.04400
Br515      Br  0.35896951  0.63080198  0.25801716    -0.00400
C516        C  0.42192021  0.45445438  0.06093462     0.01000
C517        C  0.39491298  0.46737288  0.08745285     0.03900
C518        C  0.37702078  0.44183491  0.11249722    -0.12200
C519        C  0.38590207  0.40319452  0.11092743     0.23200
C520        C  0.41209110  0.38987194  0.08374631    -0.12800
C521        C  0.43009927  0.41542123  0.05866571     0.04600
C522        C  0.36932899  0.37700839  0.13949190     0.27000
C523        C  0.38608365  0.37369394  0.17609176    -0.13500
C524        C  0.36927794  0.35064816  0.20424870     0.05100
C525        C  0.33657759  0.32966406  0.19528787    -0.09400
C526        C  0.32036136  0.33225513  0.15837465     0.05900
C527        C  0.33647839  0.35631641  0.13058335    -0.13800
Br528      Br  0.42400589  0.33669022  0.08204993    -0.05900
Br529      Br  0.38426616  0.52047974  0.09121754    -0.00200
Br530      Br  0.38978730  0.34973300  0.25574683     0.00200
Br531      Br  0.31343433  0.36157063  0.08055582    -0.04200
Br532      Br  0.46525014  0.39612546  0.02121080     0.00300
Br533      Br  0.34151798  0.45994431  0.15024151    -0.03500
Br534      Br  0.43187190  0.40119656  0.18756516    -0.04400
Br535      Br  0.27631495  0.30263166  0.14595439    -0.00400
C536        C  0.60154418  0.60606905  0.90152953     0.01000
C537        C  0.64079292  0.60970794  0.90793730     0.03900
C538        C  0.66312368  0.63206617  0.88300689    -0.12200
C539        C  0.64657422  0.65060956  0.85144806     0.23200
C540        C  0.60719832  0.64966093  0.84695182    -0.12800
C541        C  0.58481074  0.62736671  0.87170932     0.04600
C542        C  0.67077801  0.66588599  0.81990891     0.27000
C543        C  0.68258845  0.70393025  0.81959846    -0.13500
C544        C  0.70577521  0.71753395  0.78943984     0.05100
C545        C  0.71648484  0.69329019  0.75895392    -0.09400
C546        C  0.70322582  0.65556527  0.75867930     0.05900
C547        C  0.68129000  0.64179103  0.78944127    -0.13800
Br548      Br  0.58428907  0.67747686  0.80539707    -0.05900
Br549      Br  0.66512707  0.58118924  0.94796549    -0.00200
Br550      Br  0.72292250  0.76932072  0.79016460     0.00200
Br551      Br  0.66458337  0.58978378  0.78936354    -0.04200
Br552      Br  0.53117332  0.62532125  0.86370174     0.00300
Br553      Br  0.71693426  0.63567165  0.89024664    -0.03500
Br554      Br  0.66597743  0.73740603  0.85996886    -0.04400
Br555      Br  0.71132293  0.62334019  0.71443456    -0.00400
C556        C  0.61342056  0.45125137  0.89313276     0.01000
C557        C  0.64988628  0.44100646  0.90552042     0.03900
C558        C  0.67396819  0.42175701  0.88014247    -0.12200
C559        C  0.66027887  0.40889459  0.84441801     0.23200
C560        C  0.62311928  0.41643674  0.83319940    -0.12800
C561        C  0.60041702  0.43940334  0.85626514     0.04600
C562        C  0.68452083  0.38701032  0.81830456     0.27000
C563        C  0.70224158  0.40510147  0.78699182    -0.13500
C564        C  0.72044612  0.38347528  0.75865103     0.05100
C565        C  0.72212685  0.34383146  0.76256749    -0.09400
C566        C  0.70632292  0.32616085  0.79524537     0.05900
C567        C  0.68661255  0.34763180  0.82254431    -0.13800
Br568      Br  0.60325886  0.39490166  0.78607630    -0.05900
Br569      Br  0.66637063  0.45042067  0.95779154    -0.00200
Br570      Br  0.73990072  0.40812529  0.71305539     0.00200
Br571      Br  0.66009259  0.32307698  0.86429342    -0.04200
Br572      Br  0.55295669  0.45619198  0.83469315     0.00300
Br573      Br  0.72592408  0.41359078  0.89368644    -0.03500
Br574      Br  0.69954650  0.45935784  0.78212214    -0.04400
Br575      Br  0.71219547  0.27264000  0.80297323    -0.00400
C576        C  0.36299429  0.31596066  0.76499212     0.01000
C577        C  0.38853626  0.34616454  0.76019026     0.03900
C578        C  0.40472240  0.36365584  0.79265288    -0.12200
C579        C  0.39616034  0.35033225  0.83002420     0.23200
C580        C  0.37205201  0.31892023  0.83466479    -0.12800
C581        C  0.35508830  0.30207226  0.80218136     0.04600
C582        C  0.41183367  0.37043647  0.86406757     0.27000
C583        C  0.44974624  0.36518850  0.87467988    -0.13500
C584        C  0.46696410  0.39025780  0.90084238     0.05100
C585        C  0.44642770  0.42064183  0.91613495    -0.09400
C586        C  0.40735214  0.42279378  0.90952728     0.05900
C587        C  0.39006737  0.39789971  0.88319417    -0.13800
Br588      Br  0.36252136  0.29907996  0.88549055    -0.05900
Br589      Br  0.40211387  0.36298752  0.70910971    -0.00200
Br590      Br  0.51894486  0.38392320  0.91496905     0.00200
Br591      Br  0.33735197  0.40332166  0.87097896    -0.04200
Br592      Br  0.32030646  0.26051662  0.80843118     0.00300
Br593      Br  0.43840628  0.40620938  0.78596212    -0.03500
Br594      Br  0.47865886  0.32544835  0.85109506    -0.04400
Br595      Br  0.37805740  0.46123591  0.93486265    -0.00400
C596        C  0.42659106  0.57885988  0.88560712     0.01000
C597        C  0.40823123  0.56282217  0.85342459     0.03900
C598        C  0.39130911  0.58617646  0.82562261    -0.12200
C599        C  0.39342653  0.62575709  0.82927822     0.23200
C600        C  0.41152239  0.64187924  0.86153230    -0.12800
C601        C  0.42753312  0.61848406  0.88991810     0.04600
C602        C  0.37608531  0.65016761  0.79931954     0.27000
C603        C  0.39568475  0.65835277  0.76486685    -0.13500
C604        C  0.37776493  0.67843335  0.73509010     0.05100
C605        C  0.34059177  0.69149338  0.74014707    -0.09400
C606        C  0.32152252  0.68444657  0.77511535     0.05900
C607        C  0.33913500  0.66360688  0.80450535    -0.13800
Br608      Br  0.41592102  0.69602936  0.86562959    -0.05900
Br609      Br  0.40855922  0.50894893  0.84581175    -0.00200
Br610      Br  0.40328218  0.68592590  0.68640877     0.00200
Br611      Br  0.31265678  0.65299554  0.85191823    -0.04200
Br612      Br  0.45149759  0.64071336  0.93445434     0.00300
Br613      Br  0.36640286  0.56409618  0.78151074    -0.03500
Br614      Br  0.44705179  0.64190272  0.75853827    -0.04400
Br615      Br  0.27156383  0.70410517  0.78307340    -0.00400
loop_ 
_geom_bond_atom_site_label_1 
_geom_bond_atom_site_label_2 
_geom_bond_distance 
_geom_bond_site_symmetry_2 
_ccdc_geom_bond_type 
O1            C9   1.265       .  A
O1          Co21   1.961       .  S
O2           C10   1.303       .  A
O2          Co22   2.089       .  S
O3           C11   1.266   1_556  A
O3          Co23   2.023       .  S
O4           C12   1.270       .  A
O4          Co24   1.995       .  S
O5           C11   1.243       .  A
O5          Co22   1.923       .  S
O6           C12   1.272       .  A
O6          Co21   2.010       .  S
O7           C10   1.267       .  A
O7          Co24   1.872   1_554  S
O8            C9   1.281       .  A
O8          Co23   2.034       .  S
C9          C596   1.479       .  S
C10         C485   1.467       .  S
C11         C496   1.483       .  S
C12         C536   1.490       .  S
O13          C26   1.252       .  A
O13         Co21   1.958       .  S
O14          C27   1.298       .  A
O14         Co22   2.076       .  S
O15          C28   1.258       .  A
O15         Co23   1.990       .  S
O16          C29   1.276       .  A
O16         Co24   2.044   1_554  S
O17          C29   1.240       .  A
O17         Co22   1.926       .  S
O18          C28   1.260       .  A
O18         Co21   1.988       .  S
O19          C26   1.265       .  A
O19         Co24   2.001       .  S
O20          C27   1.278       .  A
O20         Co23   1.898   1_554  S
Co21         O25   2.005       .  S
Co22         O25   2.080   1_554  S
Co23         O25   1.928       .  S
Co24         O25   1.955       .  S
C26         C556   1.474       .  S
C27         C516   1.474       .  S
C28         C585   1.473       .  S
C29         C456   1.489       .  S
O30          C38   1.248       .  A
O30         Co50   1.978       .  S
O31          C39   1.266       .  A
O31         Co51   2.001       .  S
O32          C40   1.256       .  A
O32         Co52   2.015       .  S
O33          C41   1.268       .  A
O33         Co53   1.985   1_565  S
O34          C40   1.242       .  A
O34         Co51   1.959       .  S
O35          C41   1.271       .  A
O35         Co50   2.007       .  S
O36          C39   1.264       .  A
O36         Co53   1.976       .  S
O37          C38   1.247       .  A
O37         Co52   1.977   1_565  S
C38         C416   1.487       .  S
C39         C296   1.469       .  S
C40         C365   1.482       .  S
C41         C396   1.490       .  S
O42          C55   1.265       .  A
O42         Co50   1.995       .  S
O43          C56   1.268       .  A
O43         Co51   1.899       .  S
O44          C57   1.302       .  A
O44         Co52   2.096   1_565  S
O45          C58   1.271       .  A
O45         Co53   2.019       .  S
O46          C58   1.260       .  A
O46         Co51   1.993       .  S
O47          C57   1.268       .  A
O47         Co50   1.867       .  S
O48          C55   1.262       .  A
O48         Co53   2.001   1_565  S
O49          C56   1.292       .  A
O49         Co52   2.060       .  S
Co50         O54   1.917   1_565  S
Co51         O54   1.920       .  S
Co52         O54   2.247       .  S
Co53         O54   2.076       .  S
C55         C376   1.498       .  S
C56         C336   1.490       .  S
C57         C436   1.482       .  S
C58         C316   1.498       .  S
O59          C67   1.262       .  A
O59         Co79   1.972       .  S
O60          C68   1.265       .  A
O60         Co80   1.896       .  S
O61          C69   1.279       .  A
O61         Co81   2.028       .  S
O62          C70   1.263   1_455  A
O62         Co82   2.004       .  S
O63          C69   1.270       .  A
O63         Co80   1.971       .  S
O64          C70   1.259       .  A
O64         Co79   1.979       .  S
O65          C68   1.290       .  A
O65         Co82   2.099       .  S
O66          C67   1.273       .  A
O66         Co81   2.024   1_655  S
C67         C265   1.490       .  S
C68         C136   1.489       .  S
C69         C205   1.485       .  S
C70         C236   1.494       .  S
O71          C84   1.280       .  A
O71         Co79   2.028       .  S
O72          C85   1.260       .  A
O72         Co80   1.990       .  S
O73          C86   1.266       .  A
O73         Co81   1.965   1_655  S
O74          C87   1.266       .  A
O74         Co82   1.911       .  S
O75          C87   1.295       .  A
O75         Co80   2.107       .  S
O76          C86   1.273       .  A
O76         Co79   2.026       .  S
O77          C84   1.269       .  A
O77         Co82   1.962   1_655  S
O78          C85   1.260       .  A
O78         Co81   1.983       .  S
Co79         O83   2.018   1_655  S
Co80         O83   2.001       .  S
Co81         O83   2.026       .  S
Co82         O83   2.003       .  S
C84         C225   1.485       .  S
C85         C176   1.478       .  S
C86         C285   1.482       .  S
C87         C165   1.498       .  S
C88         C256   1.480       .  S
C88          N89   1.358       .  A
C88          N93   1.361       .  A
N89          C90   1.356       .  A
C90         C356   1.477       .  S
C90          N91   1.358       .  A
N91          C92   1.360       .  A
C92         C465   1.491       .  S
C92          N93   1.362       .  A
C94         C276   1.485       .  S
C94          N95   1.358       .  A
C94          N99   1.358       .  A
N95          C96   1.356       .  A
C96         C476   1.464       .  S
C96          N97   1.356       .  A
N97          C98   1.353       .  A
C98         C425   1.472       .  S
C98          N99   1.359       .  A
C100        C565   1.469       .  S
C100        N101   1.356       .  A
C100        N105   1.357       .  A
N101        C102   1.355       .  A
C102        C245   1.469       .  S
C102        N103   1.355       .  A
N103        C104   1.357       .  A
C104        C305   1.479       .  S
C104        N105   1.356       .  A
C106        C445   1.481       .  S
C106        N107   1.356       .  A
C106        N111   1.355       .  A
N107        C108   1.355       .  A
C108        C505   1.467       .  S
C108        N109   1.358       .  A
N109        C110   1.359       .  A
C110        C185   1.488       .  S
C110        N111   1.358       .  A
C112        C605   1.478       .  S
C112        N113   1.357       .  A
C112        N117   1.358       .  A
N113        C114   1.358       .  A
C114        C385   1.479       .  S
C114        N115   1.364       .  A
N115        C116   1.362       .  A
C116        C156   1.482       .  S
C116        N117   1.359       .  A
C118        C576   1.472       .  S
C118        N119   1.357       .  A
C118        N123   1.358       .  A
N119        C120   1.358       .  A
C120        C325   1.473       .  S
C120        N121   1.358       .  A
N121        C122   1.360       .  A
C122        C145   1.484       .  S
C122        N123   1.359       .  A
C124        C545   1.486       .  S
C124        N125   1.359       .  A
C124        N129   1.357       .  A
N125        C126   1.360       .  A
C126        C216   1.469       .  S
C126        N127   1.356       .  A
N127        C128   1.353       .  A
C128        C405   1.486       .  S
C128        N129   1.360       .  A
C130        C345   1.491       .  S
C130        N131   1.358       .  A
C130        N135   1.357       .  A
N131        C132   1.358       .  A
C132        C525   1.468       .  S
C132        N133   1.357       .  A
N133        C134   1.356       .  A
C134        C196   1.472       .  S
C134        N135   1.353       .  A
C136        C137   1.418       .  A
C136        C141   1.421       .  A
C137        C138   1.406       .  A
C137       Br149   1.933       .  S
C138        C139   1.405       .  A
C138       Br153   1.932       .  S
C139        C142   1.477       .  S
C139        C140   1.402       .  A
C140        C141   1.405       .  A
C140       Br148   1.934       .  S
C141       Br152   1.924       .  S
C142        C143   1.405       .  A
C142        C147   1.404       .  A
C143        C144   1.407       .  A
C143       Br154   1.931       .  S
C144        C145   1.416       .  A
C144       Br150   1.928       .  S
C145        C146   1.417       .  A
C146        C147   1.404       .  A
C146       Br155   1.927       .  S
C147       Br151   1.934       .  S
C156        C157   1.410       .  A
C156        C161   1.410       .  A
C157        C158   1.412       .  A
C157       Br169   1.928       .  S
C158        C159   1.411       .  A
C158       Br173   1.928       .  S
C159        C162   1.494       .  S
C159        C160   1.410       .  A
C160        C161   1.410       .  A
C160       Br168   1.929       .  S
C161       Br172   1.930       .  S
C162        C163   1.408       .  A
C162        C167   1.408       .  A
C163        C164   1.411       .  A
C163       Br174   1.933       .  S
C164        C165   1.418       .  A
C164       Br170   1.925       .  S
C165        C166   1.417       .  A
C166        C167   1.413       .  A
C166       Br175   1.930       .  S
C167       Br171   1.928       .  S
C176        C177   1.415       .  A
C176        C181   1.416       .  A
C177        C178   1.404       .  A
C177       Br189   1.930       .  S
C178        C179   1.405       .  A
C178       Br193   1.933       .  S
C179        C182   1.477       .  S
C179        C180   1.406       .  A
C180        C181   1.406       .  A
C180       Br188   1.931       .  S
C181       Br192   1.931       .  S
C182        C183   1.405       .  A
C182        C187   1.404       .  A
C183        C184   1.404       .  A
C183       Br194   1.936       .  S
C184        C185   1.420       .  A
C184       Br190   1.928       .  S
C185        C186   1.418       .  A
C186        C187   1.406       .  A
C186       Br195   1.933       .  S
C187       Br191   1.930       .  S
C196        C197   1.410       .  A
C196        C201   1.409       .  A
C197        C198   1.406       .  A
C197       Br209   1.933       .  S
C198        C199   1.409       .  A
C198       Br213   1.927       .  S
C199        C202   1.482       .  S
C199        C200   1.408       .  A
C200        C201   1.406       .  A
C200       Br208   1.928       .  S
C201       Br212   1.929       .  S
C202        C203   1.407       .  A
C202        C207   1.406       .  A
C203        C204   1.410       .  A
C203       Br214   1.928       .  S
C204        C205   1.414       .  A
C204       Br210   1.929       .  S
C205        C206   1.417       .  A
C206        C207   1.405       .  A
C206       Br215   1.929       .  S
C207       Br211   1.936       .  S
C216        C217   1.409       .  A
C216        C221   1.409       .  A
C217        C218   1.409       .  A
C217       Br229   1.927       .  S
C218        C219   1.409       .  A
C218       Br233   1.928       .  S
C219        C222   1.480       .  S
C219        C220   1.407       .  A
C220        C221   1.402       .  A
C220       Br228   1.928       .  S
C221       Br232   1.932       .  S
C222        C223   1.408       .  A
C222        C227   1.404       .  A
C223        C224   1.408       .  A
C223       Br234   1.929       .  S
C224        C225   1.414       .  A
C224       Br230   1.930       .  S
C225        C226   1.417       .  A
C226        C227   1.404       .  A
C226       Br235   1.925       .  S
C227       Br231   1.933       .  S
C236        C237   1.418       .  A
C236        C241   1.417       .  A
C237        C238   1.407       .  A
C237       Br249   1.932   1_655  S
C238        C239   1.405       .  A
C238       Br253   1.930       .  S
C239        C242   1.480       .  S
C239        C240   1.407       .  A
C240        C241   1.406       .  A
C240       Br248   1.932       .  S
C241       Br252   1.934       .  S
C242        C243   1.411       .  A
C242        C247   1.408       .  A
C243        C244   1.403       .  A
C243       Br254   1.933       .  S
C244        C245   1.409       .  A
C244       Br250   1.934       .  S
C245        C246   1.409       .  A
C246        C247   1.406       .  A
C246       Br255   1.930       .  S
C247       Br251   1.929       .  S
C256        C257   1.411       .  A
C256        C261   1.412       .  A
C257        C258   1.407       .  A
C257       Br269   1.931       .  S
C258        C259   1.411       .  A
C258       Br273   1.933       .  S
C259        C262   1.488       .  S
C259        C260   1.409       .  A
C260        C261   1.410       .  A
C260       Br268   1.928       .  S
C261       Br272   1.930       .  S
C262        C263   1.408       .  A
C262        C267   1.407       .  A
C263        C264   1.412       .  A
C263       Br274   1.928       .  S
C264        C265   1.416       .  A
C264       Br270   1.930   1_655  S
C265        C266   1.419       .  A
C266        C267   1.407       .  A
C266       Br275   1.935       .  S
C267       Br271   1.934       .  S
C276        C277   1.415       .  A
C276        C281   1.417       .  A
C277        C278   1.403       .  A
C277       Br289   1.931       .  S
C278        C279   1.405       .  A
C278       Br293   1.931       .  S
C279        C282   1.480       .  S
C279        C280   1.408       .  A
C280        C281   1.409       .  A
C280       Br288   1.932       .  S
C281       Br292   1.932       .  S
C282        C283   1.406       .  A
C282        C287   1.406       .  A
C283        C284   1.409       .  A
C283       Br294   1.927       .  S
C284        C285   1.415       .  A
C284       Br290   1.924       .  S
C285        C286   1.413       .  A
C286        C287   1.403       .  A
C286       Br295   1.930       .  S
C287       Br291   1.933       .  S
C296        C297   1.409       .  A
C296        C301   1.411       .  A
C297        C298   1.406       .  A
C297       Br309   1.928       .  S
C298        C299   1.409       .  A
C298       Br313   1.929       .  S
C299        C302   1.478       .  S
C299        C300   1.407       .  A
C300        C301   1.402       .  A
C300       Br308   1.932       .  S
C301       Br312   1.931       .  S
C302        C303   1.407       .  A
C302        C307   1.406       .  A
C303        C304   1.403       .  A
C303       Br314   1.932       .  S
C304        C305   1.413       .  A
C304       Br310   1.933       .  S
C305        C306   1.417       .  A
C306        C307   1.407       .  A
C306       Br315   1.933       .  S
C307       Br311   1.931       .  S
C316        C317   1.416       .  A
C316        C321   1.420       .  A
C317        C318   1.406       .  A
C317       Br329   1.931       .  S
C318        C319   1.405       .  A
C318       Br333   1.928       .  S
C319        C322   1.483       .  S
C319        C320   1.406       .  A
C320        C321   1.409       .  A
C320       Br328   1.931       .  S
C321       Br332   1.928       .  S
C322        C323   1.409       .  A
C322        C327   1.410       .  A
C323        C324   1.409       .  A
C323       Br334   1.928       .  S
C324        C325   1.410       .  A
C324       Br330   1.927       .  S
C325        C326   1.408       .  A
C326        C327   1.405       .  A
C326       Br335   1.930       .  S
C327       Br331   1.930       .  S
C336        C337   1.425       .  A
C336        C341   1.421       .  A
C337        C338   1.407       .  A
C337       Br349   1.937       .  S
C338        C339   1.402       .  A
C338       Br353   1.933       .  S
C339        C342   1.477       .  S
C339        C340   1.404       .  A
C340        C341   1.405       .  A
C340       Br348   1.934       .  S
C341       Br352   1.936       .  S
C342        C343   1.405       .  A
C342        C347   1.402       .  A
C343        C344   1.406       .  A
C343       Br354   1.935       .  S
C344        C345   1.422       .  A
C344       Br350   1.932       .  S
C345        C346   1.420       .  A
C346        C347   1.404       .  A
C346       Br355   1.935       .  S
C347       Br351   1.930       .  S
C356        C357   1.408       .  A
C356        C361   1.412       .  A
C357        C358   1.408       .  A
C357       Br369   1.929       .  S
C358        C359   1.411       .  A
C358       Br373   1.928       .  S
C359        C362   1.489       .  S
C359        C360   1.410       .  A
C360        C361   1.409       .  A
C360       Br368   1.931       .  S
C361       Br372   1.932       .  S
C362        C363   1.410       .  A
C362        C367   1.410       .  A
C363        C364   1.407       .  A
C363       Br374   1.932       .  S
C364        C365   1.411       .  A
C364       Br370   1.930       .  S
C365        C366   1.414       .  A
C366        C367   1.411       .  A
C366       Br375   1.931       .  S
C367       Br371   1.930       .  S
C376        C377   1.425       .  A
C376        C381   1.414       .  A
C377        C378   1.411       .  A
C377       Br389   1.936       .  S
C378        C379   1.407       .  A
C378       Br393   1.932       .  S
C379        C382   1.488       .  S
C379        C380   1.405       .  A
C380        C381   1.408       .  A
C380       Br388   1.929       .  S
C381       Br392   1.919       .  S
C382        C383   1.410       .  A
C382        C387   1.410       .  A
C383        C384   1.407       .  A
C383       Br394   1.931       .  S
C384        C385   1.410       .  A
C384       Br390   1.930       .  S
C385        C386   1.412       .  A
C386        C387   1.411       .  A
C386       Br395   1.929       .  S
C387       Br391   1.929       .  S
C396        C397   1.420       .  A
C396        C401   1.421       .  A
C397        C398   1.407       .  A
C397       Br409   1.934       .  S
C398        C399   1.406       .  A
C398       Br413   1.933       .  S
C399        C402   1.479       .  S
C399        C400   1.403       .  A
C400        C401   1.405       .  A
C400       Br408   1.934       .  S
C401       Br412   1.927       .  S
C402        C403   1.405       .  A
C402        C407   1.406       .  A
C403        C404   1.408       .  A
C403       Br414   1.932       .  S
C404        C405   1.420       .  A
C404       Br410   1.933       .  S
C405        C406   1.418       .  A
C406        C407   1.404       .  A
C406       Br415   1.937       .  S
C407       Br411   1.934       .  S
C416        C417   1.421       .  A
C416        C421   1.414       .  A
C417        C418   1.407       .  A
C417       Br429   1.935       .  S
C418        C419   1.406       .  A
C418       Br433   1.933       .  S
C419        C422   1.483       .  S
C419        C420   1.407       .  A
C420        C421   1.408       .  A
C420       Br428   1.929       .  S
C421       Br432   1.929       .  S
C422        C423   1.410       .  A
C422        C427   1.409       .  A
C423        C424   1.402       .  A
C423       Br434   1.928       .  S
C424        C425   1.407       .  A
C424       Br430   1.933       .  S
C425        C426   1.412       .  A
C426        C427   1.409       .  A
C426       Br435   1.931       .  S
C427       Br431   1.928       .  S
C436        C437   1.417       .  A
C436        C441   1.416       .  A
C437        C438   1.402       .  A
C437       Br449   1.932       .  S
C438        C439   1.404       .  A
C438       Br453   1.934       .  S
C439        C442   1.477       .  S
C439        C440   1.406       .  A
C440        C441   1.408       .  A
C440       Br448   1.931       .  S
C441       Br452   1.926       .  S
C442        C443   1.406       .  A
C442        C447   1.405       .  A
C443        C444   1.404       .  A
C443       Br454   1.932       .  S
C444        C445   1.415       .  A
C444       Br450   1.931       .  S
C445        C446   1.418       .  A
C446        C447   1.406       .  A
C446       Br455   1.934       .  S
C447       Br451   1.932       .  S
C456        C457   1.406       .  A
C456        C461   1.428       .  A
C457        C458   1.409       .  A
C457       Br469   1.924       .  S
C458        C459   1.410       .  A
C458       Br473   1.924       .  S
C459        C462   1.488       .  S
C459        C460   1.407       .  A
C460        C461   1.408       .  A
C460       Br468   1.939       .  S
C461       Br472   1.941       .  S
C462        C463   1.409       .  A
C462        C467   1.407       .  A
C463        C464   1.409       .  A
C463       Br474   1.933       .  S
C464        C465   1.420       .  A
C464       Br470   1.935       .  S
C465        C466   1.416       .  A
C466        C467   1.409       .  A
C466       Br475   1.930       .  S
C467       Br471   1.931       .  S
C476        C477   1.408       .  A
C476        C481   1.408       .  A
C477        C478   1.406       .  A
C477       Br489   1.927       .  S
C478        C479   1.408       .  A
C478       Br493   1.928       .  S
C479        C482   1.474       .  S
C479        C480   1.408       .  A
C480        C481   1.402       .  A
C480       Br488   1.933       .  S
C481       Br492   1.930       .  S
C482        C483   1.407       .  A
C482        C487   1.408       .  A
C483        C484   1.403       .  A
C483       Br494   1.928       .  S
C484        C485   1.409       .  A
C484       Br490   1.932       .  S
C485        C486   1.410       .  A
C486        C487   1.402       .  A
C486       Br495   1.933       .  S
C487       Br491   1.929       .  S
C496        C497   1.417       .  A
C496        C501   1.422       .  A
C497        C498   1.408       .  A
C497       Br509   1.933       .  S
C498        C499   1.407       .  A
C498       Br513   1.932       .  S
C499        C502   1.480       .  S
C499        C500   1.405       .  A
C500        C501   1.403       .  A
C500       Br508   1.936       .  S
C501       Br512   1.937       .  S
C502        C503   1.409       .  A
C502        C507   1.410       .  A
C503        C504   1.407       .  A
C503       Br514   1.930       .  S
C504        C505   1.408       .  A
C504       Br510   1.926       .  S
C505        C506   1.407       .  A
C506        C507   1.401       .  A
C506       Br515   1.930       .  S
C507       Br511   1.932       .  S
C516        C517   1.405       .  A
C516        C521   1.417       .  A
C517        C518   1.403       .  A
C517       Br529   1.926       .  S
C518        C519   1.408       .  A
C518       Br533   1.927       .  S
C519        C522   1.477       .  S
C519        C520   1.406       .  A
C520        C521   1.406       .  A
C520       Br528   1.935       .  S
C521       Br532   1.927       .  S
C522        C523   1.408       .  A
C522        C527   1.408       .  A
C523        C524   1.404       .  A
C523       Br534   1.932       .  S
C524        C525   1.410       .  A
C524       Br530   1.930       .  S
C525        C526   1.407       .  A
C526        C527   1.406       .  A
C526       Br535   1.927       .  S
C527       Br531   1.929       .  S
C536        C537   1.416       .  A
C536        C541   1.414       .  A
C537        C538   1.412       .  A
C537       Br549   1.926       .  S
C538        C539   1.408       .  A
C538       Br553   1.930       .  S
C539        C542   1.490       .  S
C539        C540   1.407       .  A
C540        C541   1.409       .  A
C540       Br548   1.930       .  S
C541       Br552   1.925       .  S
C542        C543   1.409       .  A
C542        C547   1.409       .  A
C543        C544   1.413       .  A
C543       Br554   1.927       .  S
C544        C545   1.414       .  A
C544       Br550   1.930       .  S
C545        C546   1.415       .  A
C546        C547   1.406       .  A
C546       Br555   1.933       .  S
C547       Br551   1.932       .  S
C556        C557   1.414       .  A
C556        C561   1.422       .  A
C557        C558   1.405       .  A
C557       Br569   1.933       .  S
C558        C559   1.406       .  A
C558       Br573   1.928       .  S
C559        C562   1.471       .  S
C559        C560   1.403       .  A
C560        C561   1.398       .  A
C560       Br568   1.935       .  S
C561       Br572   1.941       .  S
C562        C563   1.407       .  A
C562        C567   1.406       .  A
C563        C564   1.404       .  A
C563       Br574   1.933       .  S
C564        C565   1.413       .  A
C564       Br570   1.932       .  S
C565        C566   1.409       .  A
C566        C567   1.402       .  A
C566       Br575   1.928       .  S
C567       Br571   1.931       .  S
C576        C577   1.408       .  A
C576        C581   1.408       .  A
C577        C578   1.406       .  A
C577       Br589   1.929       .  S
C578        C579   1.412       .  A
C578       Br593   1.933       .  S
C579        C582   1.485       .  S
C579        C580   1.409       .  A
C580        C581   1.408       .  A
C580       Br588   1.927       .  S
C581       Br592   1.928       .  S
C582        C583   1.409       .  A
C582        C587   1.410       .  A
C583        C584   1.407       .  A
C583       Br594   1.928       .  S
C584        C585   1.406       .  A
C584       Br590   1.924       .  S
C585        C586   1.409       .  A
C586        C587   1.408       .  A
C586       Br595   1.928       .  S
C587       Br591   1.930       .  S
C596        C597   1.410       .  A
C596        C601   1.412       .  A
C597        C598   1.409       .  A
C597       Br609   1.927       .  S
C598        C599   1.410       .  A
C598       Br613   1.930       .  S
C599        C602   1.489       .  S
C599        C600   1.409       .  A
C600        C601   1.410       .  A
C600       Br608   1.929       .  S
C601       Br612   1.929       .  S
C602        C603   1.411       .  A
C602        C607   1.409       .  A
C603        C604   1.409       .  A
C603       Br614   1.930       .  S
C604        C605   1.412       .  A
C604       Br610   1.932       .  S
C605        C606   1.409       .  A
C606        C607   1.409       .  A
C606       Br615   1.928       .  S
C607       Br611   1.928       .  S
