geometry optimzed in LAMMPS
_audit_creation_date              2020-12-01 
_audit_creation_method            'lammps2cif' 
_symmetry_space_group_name_H-M    'P1' 
_symmetry_Int_Tables_number       1 
_symmetry_cell_setting            triclinic 
loop_ 
_symmetry_equiv_pos_as_xyz 
  x,y,z 
_cell_length_a                    23.46880223 
_cell_length_b                    23.67493867241436 
_cell_length_c                    77.43948262766061 
_cell_angle_alpha                 90.045115461558 
_cell_angle_beta                  90.29683448455354 
_cell_angle_gamma                 89.39111033975365 
loop_ 
_atom_site_label 
_atom_site_type_symbol 
_atom_site_fract_x 
_atom_site_fract_y 
_atom_site_fract_z 
_atom_site_charge 
C1          C  0.52231032  0.01442051  0.24688490    -0.01900
N2          N  0.07048732  0.53405949  0.99921174    -0.36100
N3          N  0.99272875  0.52302301  0.97033522    -0.56600
N4          N  0.89556982  0.52146429  0.99315805    -0.36100
N5          N  0.97237419  0.53018615  0.02215874    -0.56600
C6          C  0.10653235  0.51619593  0.98664535     0.27500
C7          C  0.09548055  0.52273171  0.01463521     0.27500
C8          C  0.87173040  0.50371643  0.97824179     0.27500
C9          C  0.86094182  0.50561947  0.00612577     0.27500
C10         C  0.04162252  0.53522939  0.96206414     0.36100
C11         C  0.95004234  0.53122759  0.95880678     0.36100
C12         C  0.01323156  0.54718667  0.03330483     0.36100
C13         C  0.92190845  0.53856396  0.03016484     0.36100
C14         C  0.15541553  0.49373497  0.99419754    -0.21300
C15         C  0.14858901  0.49816502  0.01186978    -0.21300
C16         C  0.82101495  0.47651337  0.98169987    -0.21300
C17         C  0.81425753  0.47756487  0.99937723    -0.21300
C18         C  0.02984905  0.55208099  0.94526302    -0.22400
C19         C  0.97176393  0.54958354  0.94320160    -0.22400
C20         C  0.98853224  0.56734201  0.04836559    -0.22400
C21         C  0.93064592  0.56156641  0.04641074    -0.22400
C22         C  0.09654687  0.52200561  0.96861655    -0.17800
C23         C  0.07216612  0.53649408  0.03102429    -0.17800
C24         C  0.86890630  0.51984074  0.02367546    -0.17700
C25         C  0.89289188  0.51564126  0.96162981    -0.17700
H26         H  0.19227183  0.47627623  0.98767262     0.15200
H27         H  0.17915959  0.48468123  0.02157454     0.15200
H28         H  0.79163145  0.45854774  0.97243756     0.15200
H29         H  0.77859526  0.46060273  0.00642034     0.15200
H30         H  0.06018913  0.56273886  0.93533371     0.13400
H31         H  0.94843040  0.55820207  0.93138589     0.13400
H32         H  0.01012701  0.58232134  0.05984416     0.13400
H33         H  0.89876761  0.57163394  0.05601765     0.13400
H34         H  0.03309878  0.55744984  0.99741673     0.26700
H35         H  0.92982639  0.54883674  0.99420514     0.26700
C36         C  0.50728219  0.00456189  0.74976328    -0.01900
C37         C  0.99719093  0.49428868  0.74858027    -0.01900
N38         N  0.51529844  0.08168592  0.99943100    -0.36100
N39         N  0.50746788  0.98540063  0.97555269    -0.56600
N40         N  0.51603420  0.90730960  0.00434953    -0.36100
N41         N  0.51831950  0.00356379  0.02810112    -0.56600
C42         C  0.50242109  0.10914659  0.98459252     0.27500
C43         C  0.50729983  0.11846132  0.01265209     0.27500
C44         C  0.50552583  0.87013159  0.99148205     0.27500
C45         C  0.50642751  0.88065971  0.01948035     0.27500
C46         C  0.50996240  0.02781893  0.96389679     0.36100
C47         C  0.51138007  0.93664124  0.96647270     0.36100
C48         C  0.52621176  0.05184847  0.03702962     0.36100
C49         C  0.52654809  0.96101853  0.03943518     0.36100
C50         C  0.48776790  0.16470490  0.98836742    -0.21300
C51         C  0.49088507  0.17057572  0.00604595    -0.21300
C52         C  0.49132844  0.81839973  0.99858962    -0.21300
C53         C  0.49069695  0.82539168  0.01621361    -0.21300
C54         C  0.51443146  0.00589268  0.94735454    -0.22400
C55         C  0.51480507  0.94835304  0.94895973    -0.22400
C56         C  0.53950330  0.03966980  0.05412757    -0.22400
C57         C  0.54052871  0.98224185  0.05557232    -0.22400
C58         C  0.50513647  0.08619613  0.96767591    -0.17800
C59         C  0.51568233  0.10664567  0.03046733    -0.17800
C60         C  0.51414524  0.90387285  0.03617441    -0.17700
C61         C  0.50915077  0.88144290  0.97353961    -0.17700
H62         H  0.47581870  0.19763516  0.97932220     0.15200
H63         H  0.48202245  0.20892253  0.01319878     0.15200
H64         H  0.48178235  0.77958094  0.99185746     0.15200
H65         H  0.48077837  0.79303003  0.02555558     0.15200
H66         H  0.51635978  0.02890329  0.93530454     0.13400
H67         H  0.51679733  0.91868848  0.93834060     0.13400
H68         H  0.54619408  0.06870785  0.06470282     0.13400
H69         H  0.54820694  0.95885027  0.06737803     0.13400
H70         H  0.53358331  0.04134413  0.00027304     0.26700
H71         H  0.53402768  0.94720163  0.00291147     0.26700
O72         O  0.52375338  0.54216533  0.87865631    -0.79600
O73         O  0.43077313  0.48426887  0.80732296    -0.79600
O74         O  0.47984086  0.61595784  0.82719279    -0.79600
O75         O  0.36926988  0.42921836  0.85717293    -0.79600
O76         O  0.51096117  0.56952899  0.80456641    -0.79700
O77         O  0.42228804  0.49344896  0.87047058    -0.79600
O78         O  0.38537144  0.50636452  0.83123877    -0.79600
O79         O  0.48518650  0.60405698  0.86209089    -0.79600
C80         C  0.50117408  0.59019829  0.87705358     1.10100
C81         C  0.38486032  0.49858352  0.81499257     1.10000
C82         C  0.49150287  0.61509468  0.81136195     1.10100
C83         C  0.37604939  0.46394067  0.86956090     1.10000
O84         O  0.51265836  0.43596276  0.88340884    -0.79600
O85         O  0.59699110  0.48959284  0.81760444    -0.79700
O86         O  0.60217621  0.55729146  0.85836128    -0.79600
O87         O  0.43274993  0.39518305  0.82798089    -0.79600
O88         O  0.51989472  0.40689218  0.81942053    -0.79600
O89         O  0.58862845  0.46549366  0.85843454    -0.79600
O90         O  0.47679374  0.39316111  0.86077740    -0.79600
O91         O  0.59863864  0.57949935  0.82415900    -0.79600
Co92       Co  0.50720873  0.47760945  0.86292416     1.51500
Co93       Co  0.51410289  0.48801841  0.81382891     1.51700
Co94       Co  0.53778913  0.58482874  0.84281831     1.51600
Co95       Co  0.43491230  0.45734257  0.84587523     1.51500
O96         O  0.50149952  0.50739025  0.83912442    -1.41500
C97         C  0.49309601  0.39178944  0.87683594     1.10000
C98         C  0.62341285  0.53553834  0.81823960     1.10100
C99         C  0.62035488  0.50722060  0.86155275     1.10100
C100        C  0.47711632  0.37551509  0.82068638     1.10000
O101        O  0.47396826  0.60757934  0.18185735    -0.79600
O102        O  0.41478072  0.50030930  0.11666069    -0.79600
O103        O  0.53839946  0.61390657  0.13847676    -0.79600
O104        O  0.38445812  0.43940502  0.17085727    -0.79600
O105        O  0.44908771  0.59115078  0.13355221    -0.79700
O106        O  0.39163264  0.52712415  0.17945854    -0.79600
O107        O  0.37481449  0.48975933  0.14090571    -0.79600
O108        O  0.56263801  0.61263721  0.17305570    -0.79600
C109        C  0.51914117  0.63548910  0.17998845     1.10100
C110        C  0.36992890  0.49576466  0.12466028     1.10000
C111        C  0.48876237  0.62651089  0.13255811     1.10100
C112        C  0.36309113  0.48228101  0.17847094     1.10000
O113        O  0.47549026  0.44023057  0.18941574    -0.79600
O114        O  0.53643763  0.53374626  0.11630238    -0.79700
O115        O  0.60541712  0.49735977  0.17012659    -0.79600
O116        O  0.42065262  0.38251768  0.13973787    -0.79600
O117        O  0.49136291  0.42934653  0.12755688    -0.79600
O118        O  0.55722033  0.52199080  0.19300314    -0.79600
O119        O  0.50087815  0.40173002  0.16487579    -0.79600
O120        O  0.59269663  0.49916092  0.13561359    -0.79600
Co121      Co  0.47463816  0.52428662  0.18422723     1.51500
Co122      Co  0.47709071  0.51359695  0.13240461     1.51700
Co123      Co  0.56881128  0.55227359  0.15460907     1.51600
Co124      Co  0.44376754  0.44841975  0.15225078     1.51500
O125        O  0.48911329  0.51685148  0.15838870    -1.41500
C126        C  0.49568940  0.39792669  0.18112387     1.10000
C127        C  0.58376878  0.51341981  0.12013811     1.10100
C128        C  0.60248218  0.50132875  0.18628923     1.10100
C129        C  0.45848811  0.38597857  0.12800462     1.10000
O130        O  0.02902256  0.05831869  0.69231230    -0.79600
O131        O  0.94407745  0.99597693  0.62208541    -0.79600
O132        O  0.08706595  0.11434162  0.64244450    -0.79600
O133        O  0.89215375  0.01548035  0.67733874    -0.79600
O134        O  0.00843731  0.07923554  0.63174781    -0.79700
O135        O  0.94575769  0.97801784  0.69745306    -0.79600
O136        O  0.89355982  0.02704019  0.64342924    -0.79600
O137        O  0.00630008  0.10440256  0.66838265    -0.79600
C138        C  0.01390808  0.10422974  0.68464411     1.10100
C139        C  0.89999639  0.02149775  0.62744445     1.10000
C140        C  0.04558566  0.11876351  0.63201898     1.10100
C141        C  0.90041475  0.00380438  0.69293978     1.10000
O142        O  0.01537683  0.89321037  0.68146594    -0.79600
O143        O  0.05971584  0.99260894  0.61481493    -0.79700
O144        O  0.11493147  0.05309617  0.67138129    -0.79600
O145        O  0.92533874  0.90676172  0.63909140    -0.79600
O146        O  0.01800012  0.90871180  0.63481524    -0.79600
O147        O  0.10338539  0.96563376  0.67851615    -0.79600
O148        O  0.92386424  0.89478792  0.67462878    -0.79600
O149        O  0.10751218  0.00159800  0.63918467    -0.79600
Co150      Co  0.02259688  0.97462986  0.68564420     1.51500
Co151      Co  0.01733226  0.99240709  0.63556788     1.51700
Co152      Co  0.05141130  0.05167618  0.65383701     1.51600
Co153      Co  0.91386953  0.96335110  0.65879636     1.51500
O154        O  0.99608794  0.99017237  0.66078895    -1.41500
C155        C  0.96814769  0.86823412  0.68014592     1.10000
C156        C  0.10708988  0.99224488  0.62270404     1.10100
C157        C  0.13451274  0.00844203  0.67815255     1.10100
C158        C  0.96996080  0.88629396  0.63194453     1.10000
O159        O  0.12020953  0.96701306  0.32106560    -0.79600
O160        O  0.05312307  0.91422900  0.37229388    -0.79600
O161        O  0.13415498  0.02602561  0.36135021    -0.79600
O162        O  0.95050960  0.88182317  0.32789303    -0.79600
O163        O  0.10307160  0.94431101  0.36939321    -0.79700
O164        O  0.03869210  0.88861437  0.31925771    -0.79600
O165        O  0.96685657  0.88743454  0.36370563    -0.79600
O166        O  0.12551212  0.05495129  0.32756644    -0.79600
C167        C  0.14895024  0.01130786  0.32109949     1.10100
C168        C  0.01237920  0.87860135  0.37266226     1.10000
C169        C  0.14452796  0.97798121  0.36827677     1.10100
C170        C  0.99300163  0.86106986  0.31974238     1.10000
O171        O  0.95629549  0.96922631  0.30628015    -0.79600
O172        O  0.05918114  0.02862637  0.38846827    -0.79700
O173        O  0.00895902  0.09643951  0.33301801    -0.79600
O174        O  0.91493086  0.00408646  0.36243144    -0.79600
O175        O  0.97229965  0.97758556  0.38212356    -0.79600
O176        O  0.03736709  0.05573863  0.30924299    -0.79600
O177        O  0.90840234  0.99867072  0.32850978    -0.79600
O178        O  0.02354993  0.08583265  0.36896412    -0.79600
Co179      Co  0.03765445  0.97118699  0.31600245     1.51500
Co180      Co  0.03822332  0.99586243  0.36657384     1.51700
Co181      Co  0.06701508  0.05823892  0.34714502     1.51600
Co182      Co  0.94121062  0.94596331  0.34549565     1.51500
O183        O  0.02107217  0.98088602  0.34230367    -1.41500
C184        C  0.90952908  0.98631558  0.31277245     1.10000
C185        C  0.03685099  0.07626492  0.38493158     1.10100
C186        C  0.01950772  0.10012168  0.31714383     1.10100
C187        C  0.92394272  0.99667716  0.37823475     1.10000
N188        N  0.97421819  0.41173252  0.50464339    -0.36100
N189        N  0.96811756  0.49324948  0.47688923    -0.56600
N190        N  0.94752296  0.58439433  0.50176196    -0.36100
N191        N  0.95696454  0.50192633  0.52936427    -0.56600
C192        C  0.99449464  0.38072378  0.49130210     0.27500
C193        C  0.99213831  0.38645470  0.51940989     0.27500
C194        C  0.96045127  0.61467594  0.48749589     0.27500
C195        C  0.95327982  0.61889539  0.51564875     0.27500
C196        C  0.96575575  0.44506434  0.46747710     0.36100
C197        C  0.95594766  0.53629501  0.46594818     0.36100
C198        C  0.95218514  0.45673823  0.53985675     0.36100
C199        C  0.93777197  0.54692522  0.53841037     0.36100
C200        C  0.02552248  0.33500314  0.49762438    -0.21300
C201        C  0.02440236  0.33885186  0.51538999    -0.21300
C202        C  0.97280189  0.66967798  0.49233994    -0.21300
C203        C  0.96831045  0.67230544  0.51010125    -0.21300
C204        C  0.95145399  0.45759166  0.45050732    -0.22400
C205        C  0.94599363  0.51540075  0.44949483    -0.22400
C206        C  0.92881196  0.47291156  0.55552919    -0.22400
C207        C  0.92018365  0.53022555  0.55466920    -0.22400
C208        C  0.98229935  0.39087483  0.47364534    -0.17800
C209        C  0.97608582  0.40304492  0.53630468    -0.17800
C210        C  0.94373498  0.60348358  0.53310265    -0.17700
C211        C  0.95952748  0.59436286  0.47021582    -0.17700
H212        H  0.04639960  0.30209936  0.49019985     0.15200
H213        H  0.04402488  0.30929131  0.52432643     0.15200
H214        H  0.98400071  0.70434781  0.48395683     0.15200
H215        H  0.97539125  0.70928317  0.51802240     0.15200
H216        H  0.94737104  0.42836112  0.43983254     0.13400
H217        H  0.93661529  0.53939839  0.43791493     0.13400
H218        H  0.92119922  0.44659413  0.56668656     0.13400
H219        H  0.90456331  0.55684218  0.56502248     0.13400
H220        H  0.94406769  0.44415069  0.50369481     0.26700
H221        H  0.93126640  0.54372067  0.50187111     0.26700
N222        N  0.59754694  0.04766242  0.50126793    -0.36100
N223        N  0.50644988  0.03818791  0.52649551    -0.56600
N224        N  0.42371606  0.02071715  0.49926115    -0.36100
N225        N  0.51541689  0.02685044  0.47412095    -0.56600
C226        C  0.62804795  0.04164818  0.51601458     0.27500
C227        C  0.63287132  0.03551829  0.48798481     0.27500
C228        C  0.39257478  0.00585407  0.51318194     0.27500
C229        C  0.39722470  0.00009396  0.48507407     0.27500
C230        C  0.54896656  0.05602665  0.53688831     0.36100
C231        C  0.45817847  0.04178003  0.53586853     0.36100
C232        C  0.56104317  0.04000450  0.46440003     0.36100
C233        C  0.47010074  0.02654781  0.46331773     0.36100
C234        C  0.68379795  0.02672314  0.51206121    -0.21300
C235        C  0.68683240  0.02283708  0.49433625    -0.21300
C236        C  0.34501323  0.97634607  0.50774483    -0.21300
C237        C  0.34791116  0.97278008  0.48997929    -0.21300
C238        C  0.52763869  0.07126687  0.55290758    -0.22400
C239        C  0.47002705  0.06238254  0.55224634    -0.22400
C240        C  0.54469831  0.04825173  0.44736908    -0.22400
C241        C  0.48700123  0.04000432  0.44668959    -0.22400
C242        C  0.60737529  0.05191509  0.53285278    -0.17800
C243        C  0.61797235  0.03792577  0.47028957    -0.17800
C244        C  0.41514766  0.00783596  0.46780478    -0.17700
C245        C  0.40494650  0.02047004  0.53054283    -0.17700
H246        H  0.71871380  0.01954135  0.52100636     0.15200
H247        H  0.72448819  0.01205165  0.48697277     0.15200
H248        H  0.31158717  0.95939080  0.51573501     0.15200
H249        H  0.31714909  0.95255299  0.48162131     0.15200
H250        H  0.55135762  0.08560236  0.56407529     0.13400
H251        H  0.44052988  0.06860065  0.56279568     0.13400
H252        H  0.57175749  0.05764837  0.43648810     0.13400
H253        H  0.46082451  0.04182537  0.43514970     0.13400
H254        H  0.55659089  0.06454108  0.50028155     0.26700
H255        H  0.45786437  0.04828486  0.49925640     0.26700
C256        C  0.99142636  0.48099494  0.25010875    -0.01900
C257        C  0.02994679  0.73777637  0.28867543    -0.04900
C258        C  0.98832930  0.69721643  0.29264104     0.09200
C259        C  0.94590033  0.71171327  0.30484994    -0.02300
C260        C  0.94491529  0.76580873  0.31287370    -0.00600
C261        C  0.98918513  0.80526535  0.30990500    -0.04200
C262        C  0.02975806  0.79138539  0.29686132     0.02800
C263        C  0.98664516  0.64125438  0.28289345     0.09700
C264        C  0.90324095  0.67038931  0.30932307     0.35600
C265        C  0.06820290  0.83386457  0.29032118     0.39000
C266        C  0.02899037  0.59967331  0.28526184    -0.04500
C267        C  0.03111914  0.55029751  0.27467512     0.02600
C268        C  0.98670595  0.53708959  0.26225416    -0.04100
C269        C  0.94015115  0.57794893  0.26197018    -0.00400
C270        C  0.94315420  0.63048675  0.27090999    -0.02900
C271        C  0.07188554  0.60873775  0.29856457     0.36300
C272        C  0.88553783  0.56815120  0.25409025     0.39900
C273        C  0.08247640  0.51659339  0.27652999     0.39100
C274        C  0.90072742  0.67463483  0.26767463     0.36000
C275        C  0.07320604  0.72483590  0.27589993     0.36700
C276        C  0.89668832  0.78088023  0.32363689     0.39900
N277        N  0.12572309  0.49446201  0.27933817    -0.38100
N278        N  0.10599362  0.61604584  0.30915569    -0.39700
N279        N  0.83978774  0.56548710  0.24861425    -0.37500
N280        N  0.86709948  0.70978891  0.26511208    -0.39900
N281        N  0.86927278  0.63734846  0.31288445    -0.39600
N282        N  0.85791097  0.79267927  0.33213506    -0.37300
N283        N  0.09809106  0.86766241  0.28466997    -0.38300
N284        N  0.10856839  0.71518929  0.26593209    -0.40000
C285        C  0.05394347  0.34160903  0.27354612    -0.04900
C286        C  0.00802786  0.32615755  0.28400629     0.09200
C287        C  0.96401631  0.36631476  0.28656113    -0.02300
C288        C  0.96256133  0.41815669  0.27713557    -0.00600
C289        C  0.00283522  0.42945711  0.26355781    -0.04200
C290        C  0.05248131  0.39224920  0.26367874     0.02800
C291        C  0.00795820  0.26817819  0.29261097     0.09700
C292        C  0.91765529  0.35262526  0.29811659     0.35600
C293        C  0.10630781  0.40596633  0.25571739     0.39000
C294        C  0.01375623  0.26279298  0.31069229    -0.04500
C295        C  0.01624737  0.20873131  0.31862217     0.02600
C296        C  0.01625614  0.15805537  0.30851598    -0.04100
C297        C  0.01666842  0.16430837  0.29027931    -0.00400
C298        C  0.00889343  0.21817758  0.28250541    -0.02900
C299        C  0.02038320  0.31319341  0.32118528     0.36300
C300        C  0.03143704  0.11689466  0.27929442     0.39900
C301        C  0.02384790  0.20665335  0.33723207     0.39100
C302        C  0.00391712  0.22197889  0.26385469     0.36000
C303        C  0.10455226  0.30538735  0.27347466     0.36700
C304        C  0.91536236  0.45646129  0.28062624     0.39900
N305        N  0.03043835  0.20575471  0.35205249    -0.38100
N306        N  0.02581412  0.35325997  0.32958148    -0.39700
N307        N  0.04600400  0.08028073  0.27039084    -0.37500
N308        N  0.00041889  0.22437702  0.24896001    -0.39900
N309        N  0.88078033  0.34181104  0.30737029    -0.39600
N310        N  0.87685077  0.48530743  0.28397091    -0.37300
N311        N  0.15122419  0.41430916  0.25022653    -0.38300
N312        N  0.14471753  0.27659340  0.27345807    -0.40000
C313        C  0.03629320  0.29958342  0.43606736    -0.04900
C314        C  0.99903659  0.25318168  0.43672957     0.09200
C315        C  0.95727614  0.25120227  0.44976107    -0.02300
C316        C  0.95156699  0.29618253  0.46167937    -0.00600
C317        C  0.98886196  0.34277106  0.46103709    -0.04200
C318        C  0.03226334  0.34336671  0.44843344     0.02800
C319        C  0.00537773  0.20544871  0.42402429     0.09700
C320        C  0.92068867  0.20239461  0.45100338     0.35600
C321        C  0.07372396  0.38835539  0.44848368     0.39000
C322        C  0.04570587  0.16210374  0.42707997    -0.04500
C323        C  0.05494469  0.11923458  0.41465594     0.02600
C324        C  0.02335769  0.11871849  0.39892788    -0.04100
C325        C  0.97964342  0.16014449  0.39660853    -0.00400
C326        C  0.97171237  0.20381069  0.40890542    -0.02900
C327        C  0.07798587  0.16187051  0.44312143     0.36300
C328        C  0.94074617  0.15687485  0.38203029     0.39900
C329        C  0.09717437  0.07583641  0.41835642     0.39100
C330        C  0.92914275  0.24766212  0.40596026     0.36000
C331        C  0.07866720  0.30228381  0.42254287     0.36700
C332        C  0.90713964  0.29457728  0.47461076     0.39900
N333        N  0.13023143  0.04083533  0.42162231    -0.38100
N334        N  0.10354042  0.16164012  0.45594230    -0.39700
N335        N  0.90927784  0.15419132  0.37050654    -0.37500
N336        N  0.89533962  0.28282336  0.40364142    -0.39900
N337        N  0.89181378  0.16322521  0.45203057    -0.39600
N338        N  0.87182909  0.29331490  0.48497453    -0.37300
N339        N  0.10691077  0.42416312  0.44862461    -0.38300
N340        N  0.11218002  0.30445765  0.41166107    -0.40000
C341        C  0.93027659  0.70177721  0.43408788    -0.04900
C342        C  0.98586424  0.71133375  0.42781110     0.09200
C343        C  0.03253817  0.68275608  0.43561997    -0.02300
C344        C  0.02373876  0.64518137  0.44949738    -0.00600
C345        C  0.96821687  0.63548722  0.45571078    -0.04200
C346        C  0.92147453  0.66369201  0.44788821     0.02800
C347        C  0.99564616  0.75268835  0.41332475     0.09700
C348        C  0.08983251  0.69231223  0.42941289     0.35600
C349        C  0.86428292  0.65286616  0.45393600     0.39000
C350        C  0.02098385  0.80517648  0.41679380    -0.04500
C351        C  0.03156466  0.84363748  0.40326074     0.02600
C352        C  0.01349919  0.83212027  0.38606305    -0.04100
C353        C  0.99097528  0.77809755  0.38255649    -0.00400
C354        C  0.98205070  0.73872533  0.39606462    -0.02900
C355        C  0.03567748  0.82000523  0.43446032     0.36300
C356        C  0.98247147  0.76050047  0.36489997     0.39900
C357        C  0.06351247  0.89376439  0.40727326     0.39100
C358        C  0.95946585  0.68333145  0.39220626     0.36000
C359        C  0.88222973  0.73186315  0.42648999     0.36700
C360        C  0.07191317  0.61627038  0.45746027     0.39900
N361        N  0.09123004  0.93212822  0.41082949    -0.38100
N362        N  0.04743138  0.83180787  0.44853056    -0.39700
N363        N  0.97748933  0.74423685  0.35091622    -0.37500
N364        N  0.94139626  0.63908687  0.38920303    -0.39900
N365        N  0.13555681  0.70035683  0.42453288    -0.39600
N366        N  0.11015106  0.59305842  0.46387189    -0.37300
N367        N  0.81863658  0.64394422  0.45873287    -0.38300
N368        N  0.84395967  0.75595040  0.42040144    -0.40000
C369        C  0.28260600  0.00870354  0.39245655    -0.04900
C370        C  0.27713588  0.96998750  0.40618527     0.09200
C371        C  0.23914116  0.92445606  0.40419582    -0.02300
C372        C  0.20465534  0.92062830  0.38925207    -0.00600
C373        C  0.19951560  0.96734281  0.37793404    -0.04200
C374        C  0.24235078  0.00924539  0.37881545     0.02800
C375        C  0.31071657  0.97787970  0.42263515     0.09700
C376        C  0.23311544  0.88299906  0.41782246     0.35600
C377        C  0.24527456  0.05360782  0.36599469     0.39000
C378        C  0.30134762  0.02636997  0.43308047    -0.04500
C379        C  0.33305575  0.03422657  0.44840107     0.02600
C380        C  0.37512470  0.99447775  0.45331351    -0.04100
C381        C  0.38436987  0.94589572  0.44306840    -0.00400
C382        C  0.35285104  0.93792274  0.42769889    -0.02900
C383        C  0.26177623  0.07040093  0.42765377     0.36300
C384        C  0.42773317  0.90497243  0.44815223     0.39900
C385        C  0.32413006  0.08455808  0.45880701     0.39100
C386        C  0.36596783  0.89007422  0.41665377     0.36000
C387        C  0.32906904  0.04868772  0.39260023     0.36700
C388        C  0.17619779  0.86806435  0.38536079     0.39900
N389        N  0.31706460  0.12460889  0.46713602    -0.38100
N390        N  0.23205085  0.10716336  0.42337912    -0.39700
N391        N  0.46249105  0.87257154  0.45225616    -0.37500
N392        N  0.37636835  0.85180932  0.40786745    -0.39900
N393        N  0.22799248  0.84996736  0.42869841    -0.39600
N394        N  0.15462176  0.82556104  0.38215967    -0.37300
N395        N  0.24817451  0.08964329  0.35597292    -0.38300
N396        N  0.36640300  0.08023274  0.39270160    -0.40000
C397        C  0.84725062  0.00884472  0.42205401    -0.04900
C398        C  0.79056728  0.01840775  0.41687443     0.09200
C399        C  0.77775382  0.02557444  0.39924041    -0.02300
C400        C  0.82144778  0.02219454  0.38673498    -0.00600
C401        C  0.87854031  0.00815457  0.39166632    -0.04200
C402        C  0.89090115  0.00364112  0.40965849     0.02800
C403        C  0.74497079  0.02351059  0.43027295     0.09700
C404        C  0.71921667  0.03653746  0.39399823     0.35600
C405        C  0.94846521  0.99657663  0.41603542     0.39000
C406        C  0.72993057  0.07711141  0.43694801    -0.04500
C407        C  0.69020364  0.08174059  0.45050680     0.02600
C408        C  0.66383197  0.03296538  0.45703116    -0.04100
C409        C  0.67850768  0.97939594  0.45025542    -0.00400
C410        C  0.71964747  0.97459105  0.43710877    -0.02900
C411        C  0.75557155  0.12739113  0.42982217     0.36300
C412        C  0.65104774  0.92929476  0.45686466     0.39900
C413        C  0.67648643  0.13658245  0.45780427     0.39100
C414        C  0.73642455  0.91930812  0.43072250     0.36000
C415        C  0.86063926  0.00516363  0.44037320     0.36700
C416        C  0.80699576  0.03602229  0.36899702     0.39900
N417        N  0.66584383  0.18031881  0.46371639    -0.38100
N418        N  0.77595626  0.16731515  0.42398216    -0.39700
N419        N  0.62881659  0.88957042  0.46217928    -0.37500
N420        N  0.75002925  0.87512860  0.42572454    -0.39900
N421        N  0.67248610  0.04511863  0.38984252    -0.39600
N422        N  0.79498887  0.04844348  0.35498096    -0.37300
N423        N  0.99320386  0.99201766  0.42219112    -0.38300
N424        N  0.87106763  0.00252163  0.45497460    -0.40000
C425        C  0.20076165  0.94978062  0.58536845    -0.04900
C426        C  0.24471974  0.98955809  0.58684353     0.09200
C427        C  0.25023248  0.02118213  0.60222095    -0.02300
C428        C  0.20853444  0.01717183  0.61528259    -0.00600
C429        C  0.16054373  0.98242366  0.61275048    -0.04200
C430        C  0.16036334  0.94463959  0.59863426     0.02800
C431        C  0.28556368  0.99724446  0.57225545     0.09700
C432        C  0.29761682  0.05944093  0.60425688     0.35600
C433        C  0.12248624  0.89684586  0.59860099     0.39000
C434        C  0.27742458  0.04186890  0.56036964    -0.04500
C435        C  0.31549422  0.04867945  0.54648151     0.02600
C436        C  0.36137653  0.01037122  0.54424315    -0.04100
C437        C  0.36883057  0.96511780  0.55598059    -0.00400
C438        C  0.33135444  0.95891395  0.57001782    -0.02900
C439        C  0.22985060  0.08079460  0.56249837     0.36300
C440        C  0.41559246  0.92530750  0.55369702     0.39900
C441        C  0.30849735  0.09593154  0.53473471     0.39100
C442        C  0.34018164  0.91353220  0.58234638     0.36000
C443        C  0.19606984  0.91529907  0.56994136     0.36700
C444        C  0.21456038  0.04992681  0.63101294     0.39900
N445        N  0.30319755  0.13364131  0.52534275    -0.38100
N446        N  0.19179984  0.11173194  0.56422945    -0.39700
N447        N  0.45298340  0.89363568  0.55187883    -0.37500
N448        N  0.34704119  0.87748498  0.59224973    -0.39900
N449        N  0.33528892  0.09019939  0.60582213    -0.39600
N450        N  0.21971017  0.07638791  0.64348976    -0.37300
N451        N  0.09499650  0.85661091  0.59863924    -0.38300
N452        N  0.19214468  0.88809782  0.55757813    -0.40000
C453        C  0.75363597  0.04797406  0.60704872    -0.04900
C454        C  0.76909255  0.05731636  0.58972707     0.09200
C455        C  0.82703564  0.06268834  0.58540380    -0.02300
C456        C  0.86934693  0.05813860  0.59829332    -0.00600
C457        C  0.85469356  0.04102157  0.61517350    -0.04200
C458        C  0.79615122  0.03816171  0.61967708     0.02800
C459        C  0.72495738  0.05707166  0.57574698     0.09700
C460        C  0.84315967  0.06916998  0.56746299     0.35600
C461        C  0.77896225  0.02266746  0.63700702     0.39000
C462        C  0.71045984  0.10731703  0.56684134    -0.04500
C463        C  0.67263768  0.10558331  0.55265266     0.02600
C464        C  0.64887962  0.05378499  0.54744850    -0.04100
C465        C  0.66255557  0.00378126  0.55652432    -0.00400
C466        C  0.70041062  0.00540589  0.57065520    -0.02900
C467        C  0.73451795  0.16065805  0.57229488     0.36300
C468        C  0.63816246  0.95051195  0.55112522     0.39900
C469        C  0.65800990  0.15691450  0.54335845     0.39100
C470        C  0.71459592  0.95376940  0.57988588     0.36000
C471        C  0.69381925  0.04589837  0.61166513     0.36700
C472        C  0.92748962  0.07324568  0.59428182     0.39900
N473        N  0.64620840  0.19772792  0.53588048    -0.38100
N474        N  0.75380905  0.20320192  0.57662468    -0.39700
N475        N  0.61884713  0.90802299  0.54676128    -0.37500
N476        N  0.72566568  0.91281304  0.58739023    -0.39900
N477        N  0.85536056  0.07367518  0.55307239    -0.39600
N478        N  0.97366643  0.08610926  0.59105150    -0.37300
N479        N  0.76498773  0.01031551  0.65080053    -0.38300
N480        N  0.64610691  0.04412589  0.61530878    -0.40000
C481        C  0.06733444  0.22277522  0.59521452    -0.04900
C482        C  0.01377828  0.25014990  0.59442993     0.09200
C483        C  0.97267166  0.23845937  0.60715452    -0.02300
C484        C  0.98411175  0.19739956  0.62000939    -0.00600
C485        C  0.03739211  0.16878361  0.62052865    -0.04200
C486        C  0.07978280  0.18392383  0.60852736     0.02800
C487        C  0.00133318  0.29089233  0.58001416     0.09700
C488        C  0.91843469  0.26832943  0.60688280     0.35600
C489        C  0.13656700  0.16007262  0.60944980     0.39000
C490        C  0.96483126  0.27545675  0.56629392    -0.04500
C491        C  0.95618678  0.31203500  0.55213153     0.02600
C492        C  0.98616958  0.36335489  0.55114856    -0.04100
C493        C  0.02381961  0.37819774  0.56472968    -0.00400
C494        C  0.02978902  0.34306520  0.57933955    -0.02900
C495        C  0.93675549  0.22140624  0.56660797     0.36300
C496        C  0.05707819  0.42934975  0.56359503     0.39900
C497        C  0.91611565  0.29692051  0.53860979     0.39100
C498        C  0.06525126  0.36053266  0.59374652     0.36000
C499        C  0.10922104  0.23326709  0.58186866     0.36700
C500        C  0.94147527  0.18551513  0.63297174     0.39900
N501        N  0.88429029  0.28476068  0.52780040    -0.38100
N502        N  0.91415286  0.17831012  0.56680511    -0.39700
N503        N  0.08361446  0.47015310  0.56272750    -0.37500
N504        N  0.09336010  0.37440775  0.60528317    -0.39900
N505        N  0.87513169  0.29216162  0.60661513    -0.39600
N506        N  0.90764970  0.17620797  0.64338319    -0.37300
N507        N  0.18341041  0.14464066  0.60937465    -0.38300
N508        N  0.14240402  0.24163472  0.57119357    -0.40000
C509        C  0.94570897  0.74517666  0.60829402    -0.04900
C510        C  0.95110534  0.76150786  0.59087272     0.09200
C511        C  0.96123737  0.81835577  0.58693996    -0.02300
C512        C  0.96709215  0.85864313  0.60025899    -0.00600
C513        C  0.96377438  0.84262488  0.61793041    -0.04200
C514        C  0.95132174  0.78557887  0.62174155     0.02800
C515        C  0.94809942  0.71919327  0.57642889     0.09700
C516        C  0.96636196  0.83527529  0.56896512     0.35600
C517        C  0.94322551  0.76781948  0.63938319     0.39000
C518        C  0.89758061  0.71335881  0.56659055    -0.04500
C519        C  0.89662539  0.67751670  0.55197148     0.02600
C520        C  0.94612632  0.64722689  0.54710651    -0.04100
C521        C  0.99669095  0.65335992  0.55690752    -0.00400
C522        C  0.99767903  0.68922500  0.57147208    -0.02900
C523        C  0.84664419  0.74436787  0.57155406     0.36300
C524        C  0.04775067  0.62240062  0.55199737     0.39900
C525        C  0.84455873  0.67094842  0.54206274     0.39100
C526        C  0.04992197  0.69585034  0.58132077     0.36000
C527        C  0.93417947  0.68662714  0.61232549     0.36700
C528        C  0.97683318  0.91628775  0.59510595     0.39900
N529        N  0.80308511  0.66560525  0.53410764    -0.38100
N530        N  0.80604363  0.76918340  0.57554183    -0.39700
N531        N  0.08845245  0.59770648  0.54804133    -0.37500
N532        N  0.09148676  0.70125874  0.58922791    -0.39900
N533        N  0.97035949  0.84857416  0.55464828    -0.39600
N534        N  0.98500146  0.96048574  0.58936887    -0.37300
N535        N  0.93542463  0.75124550  0.65318935    -0.38300
N536        N  0.92500135  0.63986358  0.61551502    -0.40000
C537        C  0.12669991  0.53456578  0.22347437    -0.04900
C538        C  0.14327184  0.48538951  0.21451943     0.09200
C539        C  0.10589148  0.43922280  0.21457992    -0.02300
C540        C  0.05475903  0.44070973  0.22441047    -0.00600
C541        C  0.04249154  0.48613905  0.23631263    -0.04200
C542        C  0.07727245  0.53570820  0.23403447     0.02800
C543        C  0.19990007  0.48281616  0.20502150     0.09700
C544        C  0.12215538  0.38784435  0.20548378     0.35600
C545        C  0.05933898  0.59142442  0.23971702     0.39000
C546        C  0.25182632  0.48971308  0.21418336    -0.04500
C547        C  0.30427893  0.49152657  0.20532298     0.02600
C548        C  0.30681586  0.48025664  0.18741221    -0.04100
C549        C  0.25539587  0.47143323  0.17826338    -0.00400
C550        C  0.20222788  0.47542313  0.18685646    -0.02900
C551        C  0.25168055  0.49539600  0.23283011     0.36300
C552        C  0.25646882  0.45990522  0.15991172     0.39900
C553        C  0.35571477  0.50652670  0.21467859     0.39100
C554        C  0.14985126  0.47411013  0.17684816     0.36000
C555        C  0.16005167  0.58551077  0.22124611     0.36700
C556        C  0.01797115  0.39229959  0.22271680     0.39900
N557        N  0.39644539  0.51998379  0.22201808    -0.38100
N558        N  0.25210008  0.50027120  0.24769933    -0.39700
N559        N  0.25560046  0.44976415  0.14530531    -0.37500
N560        N  0.10807421  0.47310460  0.16885320    -0.39900
N561        N  0.13505645  0.34689489  0.19825478    -0.39600
N562        N  0.99126711  0.35228301  0.22023845    -0.37300
N563        N  0.04554717  0.63701989  0.24326700    -0.38300
N564        N  0.18659672  0.62601193  0.21950076    -0.40000
C565        C  0.86392587  0.50462143  0.21616049    -0.04900
C566        C  0.82142143  0.46877732  0.22246290     0.09200
C567        C  0.83703806  0.42853868  0.23489761    -0.02300
C568        C  0.89374775  0.42555508  0.24144225    -0.00600
C569        C  0.93406877  0.47059648  0.23858647    -0.04200
C570        C  0.91899774  0.50639407  0.22403918     0.02800
C571        C  0.76205854  0.46982223  0.21456077     0.09700
C572        C  0.79510229  0.38726264  0.24014012     0.35600
C573        C  0.95768394  0.54695965  0.21672181     0.39000
C574        C  0.75235846  0.44438430  0.19836406    -0.04500
C575        C  0.69916129  0.45094688  0.18979748     0.02600
C576        C  0.65483527  0.48529912  0.19699827    -0.04100
C577        C  0.66349419  0.50684862  0.21395266    -0.00400
C578        C  0.71606932  0.49784078  0.22276955    -0.02900
C579        C  0.79772221  0.41127888  0.19047696     0.36300
C580        C  0.61949623  0.54029283  0.22232825     0.39900
C581        C  0.69069421  0.42140312  0.17357079     0.39100
C582        C  0.72205012  0.51682064  0.24047133     0.36000
C583        C  0.84960433  0.54223432  0.20191570     0.36700
C584        C  0.91023657  0.37028909  0.24778179     0.39900
N585        N  0.68427945  0.39771675  0.16063506    -0.38100
N586        N  0.83407215  0.38497732  0.18426257    -0.39700
N587        N  0.58479070  0.56742265  0.22905135    -0.37500
N588        N  0.72489917  0.53136380  0.25471956    -0.39900
N589        N  0.76169695  0.35440427  0.24429726    -0.39600
N590        N  0.92025520  0.32453327  0.25216832    -0.37300
N591        N  0.98536067  0.57957143  0.20956742    -0.38300
N592        N  0.83803160  0.57194457  0.19053893    -0.40000
C593        C  0.54706325  0.20641919  0.06774741    -0.04900
C594        C  0.49147427  0.22223176  0.07281921     0.09200
C595        C  0.44424478  0.20515612  0.06284655    -0.02300
C596        C  0.45225869  0.16924596  0.04852293    -0.00600
C597        C  0.50786347  0.15271474  0.04353082    -0.04200
C598        C  0.55533014  0.17331342  0.05281760     0.02800
C599        C  0.48320632  0.26274942  0.08738983     0.09700
C600        C  0.38752563  0.22530053  0.06723118     0.35600
C601        C  0.61256351  0.15817917  0.04741895     0.39000
C602        C  0.49213911  0.32036035  0.08433513    -0.04500
C603        C  0.48224716  0.36006571  0.09743863     0.02600
C604        C  0.46603776  0.34234254  0.11427418    -0.04100
C605        C  0.45634733  0.28416473  0.11727033    -0.00400
C606        C  0.46471757  0.24456832  0.10378028    -0.02900
C607        C  0.51081164  0.33907757  0.06742716     0.36300
C608        C  0.43765756  0.26469355  0.13405029     0.39900
C609        C  0.48634762  0.41939816  0.09288603     0.39100
C610        C  0.45422539  0.18509616  0.10667064     0.36000
C611        C  0.59559242  0.22378757  0.07807239     0.36700
C612        C  0.40320931  0.14834043  0.03912201     0.39900
N613        N  0.49023791  0.46597067  0.08857160    -0.38100
N614        N  0.52590543  0.35416080  0.05401582    -0.39700
N615        N  0.42255914  0.24873035  0.14737534    -0.37500
N616        N  0.44562517  0.13762826  0.10891422    -0.39900
N617        N  0.34244622  0.24184784  0.07071322    -0.39600
N618        N  0.36412411  0.13173054  0.03157779    -0.37300
N619        N  0.65823569  0.14597087  0.04314284    -0.38300
N620        N  0.63408326  0.23752687  0.08641849    -0.40000
C621        C  0.54142097  0.79424523  0.07119721    -0.04900
C622        C  0.49480048  0.80461031  0.08225194     0.09200
C623        C  0.45355776  0.84591569  0.07793211    -0.02300
C624        C  0.45870692  0.87667166  0.06251227    -0.00600
C625        C  0.50597328  0.86710306  0.05156654    -0.04200
C626        C  0.54739544  0.82593986  0.05598241     0.02800
C627        C  0.48466720  0.76555083  0.09689608     0.09700
C628        C  0.40505515  0.85541721  0.08915276     0.35600
C629        C  0.59588540  0.81599652  0.04480272     0.39000
C630        C  0.51510349  0.77066649  0.11249341    -0.04500
C631        C  0.51294755  0.72723854  0.12493834     0.02600
C632        C  0.48090000  0.67782693  0.12162084    -0.04100
C633        C  0.44812190  0.67486367  0.10610120    -0.00400
C634        C  0.44911041  0.71924464  0.09411426    -0.02900
C635        C  0.55039883  0.81973645  0.11533638     0.36300
C636        C  0.41873009  0.62432840  0.10069950     0.39900
C637        C  0.54675655  0.73255102  0.14056659     0.39100
C638        C  0.41664540  0.71545006  0.07808641     0.36000
C639        C  0.58208613  0.74947906  0.07518944     0.36700
C640        C  0.41540329  0.91826505  0.05788015     0.39900
N641        N  0.57509281  0.73762664  0.15272656    -0.38100
N642        N  0.57856744  0.85894041  0.11752830    -0.39700
N643        N  0.39490666  0.58664702  0.09463114    -0.37500
N644        N  0.39100372  0.71268400  0.06531674    -0.39900
N645        N  0.36630598  0.86270583  0.09809513    -0.39600
N646        N  0.38108784  0.95167708  0.05421381    -0.37300
N647        N  0.63429553  0.80782416  0.03579535    -0.38300
N648        N  0.61432521  0.71357156  0.07831716    -0.40000
C649        C  0.44867632  0.17019344  0.92900759    -0.04900
C650        C  0.49650189  0.20304554  0.92484493     0.09200
C651        C  0.54760457  0.19619256  0.93434778    -0.02300
C652        C  0.55071744  0.15701642  0.94802591    -0.00600
C653        C  0.50205765  0.12624169  0.95275563    -0.04200
C654        C  0.45113805  0.13249899  0.94309923     0.02800
C655        C  0.49127753  0.24935972  0.91177775     0.09700
C656        C  0.59644091  0.23073891  0.93034810     0.35600
C657        C  0.40123561  0.10047689  0.94780620     0.39000
C658        C  0.47089269  0.30266348  0.91706928    -0.04500
C659        C  0.46993674  0.34823451  0.90542423     0.02600
C660        C  0.48872426  0.34087561  0.88812688    -0.04100
C661        C  0.50604503  0.28642265  0.88259509    -0.00400
C662        C  0.50816325  0.24100502  0.89449017    -0.02900
C663        C  0.45174392  0.31076277  0.93471744     0.36300
C664        C  0.52420855  0.27731633  0.86498229     0.39900
C665        C  0.44849547  0.40264330  0.91137391     0.39100
C666        C  0.52904422  0.18590611  0.88913318     0.36000
C667        C  0.39675830  0.17596899  0.91890703     0.36700
C668        C  0.60407630  0.14785916  0.95718903     0.39900
N669        N  0.43129430  0.44578878  0.91622614    -0.38100
N670        N  0.43643587  0.31698386  0.94877978    -0.39700
N671        N  0.53899231  0.26918264  0.85097218    -0.37500
N672        N  0.54591728  0.14190167  0.88494679    -0.39900
N673        N  0.63526759  0.25857731  0.92721172    -0.39600
N674        N  0.64662657  0.14004771  0.96446477    -0.37300
N675        N  0.36153037  0.07479153  0.95159391    -0.38300
N676        N  0.35547623  0.18050450  0.91076637    -0.40000
C677        C  0.45592323  0.76208595  0.94461790    -0.04900
C678        C  0.50515046  0.74960648  0.93490044     0.09200
C679        C  0.55642674  0.77790956  0.93854534    -0.02300
C680        C  0.55854064  0.81820391  0.95194766    -0.00600
C681        C  0.50851999  0.83284102  0.96111928    -0.04200
C682        C  0.45709828  0.80474395  0.95732122     0.02800
C683        C  0.50227461  0.70827968  0.92029396     0.09700
C684        C  0.60626024  0.76729615  0.92797685     0.35600
C685        C  0.40500556  0.82087336  0.96612863     0.39000
C686        C  0.48165714  0.72574968  0.90403981    -0.04500
C687        C  0.47911815  0.68724623  0.89011146     0.02600
C688        C  0.49814549  0.63028580  0.89223127    -0.04100
C689        C  0.51774301  0.61299890  0.90895393    -0.00400
C690        C  0.52001746  0.65199052  0.92274589    -0.02900
C691        C  0.46403051  0.78420632  0.90162795     0.36300
C692        C  0.53625336  0.55533923  0.91237865     0.39900
C693        C  0.45694955  0.70749388  0.87370249     0.39100
C694        C  0.54151733  0.63446377  0.93955408     0.36000
C695        C  0.40370759  0.73173478  0.94125455     0.36700
C696        C  0.61160367  0.84659055  0.95581208     0.39900
N697        N  0.43890070  0.72428981  0.86072739    -0.38100
N698        N  0.45021028  0.83089989  0.89981029    -0.39700
N699        N  0.55142284  0.50965892  0.91533491    -0.37500
N700        N  0.55893902  0.62062606  0.95292209    -0.39900
N701        N  0.64577124  0.75925318  0.91940283    -0.39600
N702        N  0.65375998  0.86958872  0.95884795    -0.37300
N703        N  0.36352490  0.83364894  0.97321299    -0.38300
N704        N  0.36201853  0.70750729  0.93859549    -0.40000
C705        C  0.04915682  0.35671208  0.72286899    -0.04900
C706        C  0.00113022  0.32153639  0.72257805     0.09200
C707        C  0.95224700  0.34026983  0.73134866    -0.02300
C708        C  0.95329763  0.38996857  0.74163204    -0.00600
C709        C  0.99711357  0.43231539  0.73946848    -0.04200
C710        C  0.04591566  0.41249200  0.72972682     0.02800
C711        C  0.00228232  0.26520128  0.71298713     0.09700
C712        C  0.90049271  0.30722171  0.73023341     0.35600
C713        C  0.09340750  0.44862685  0.72561941     0.39000
C714        C  0.99420651  0.21307008  0.72163747    -0.04500
C715        C  0.99437450  0.16111551  0.71235040     0.02600
C716        C  0.00927147  0.15943535  0.69457903    -0.04100
C717        C  0.02159747  0.21167169  0.68642000    -0.00400
C718        C  0.01341104  0.26366749  0.69509614    -0.02900
C719        C  0.98701312  0.21255444  0.74022698     0.36300
C720        C  0.04904030  0.21357141  0.66974500     0.39900
C721        C  0.97870657  0.10974999  0.72125086     0.39100
C722        C  0.01733117  0.31589961  0.68537692     0.36000
C723        C  0.10255193  0.33550900  0.71580587     0.36700
C724        C  0.91335041  0.38942581  0.75585075     0.39900
N725        N  0.96606051  0.06903814  0.72848699    -0.38100
N726        N  0.98126667  0.21216978  0.75506138    -0.39700
N727        N  0.07298172  0.21922504  0.65686417    -0.37500
N728        N  0.02084739  0.35677834  0.67729226    -0.39900
N729        N  0.85931043  0.28088804  0.72934290    -0.39600
N730        N  0.88149984  0.38593662  0.76716261    -0.37300
N731        N  0.13293122  0.47391371  0.72143177    -0.38300
N732        N  0.14501890  0.31861281  0.71017014    -0.40000
C733        C  0.01604879  0.71885601  0.69360081    -0.04900
C734        C  0.96819032  0.69923242  0.70267987     0.09200
C735        C  0.91726649  0.73167387  0.70219881    -0.02300
C736        C  0.91553240  0.78522464  0.69394794    -0.00600
C737        C  0.96536082  0.80766132  0.68630092    -0.04200
C738        C  0.01456462  0.77216908  0.68534357     0.02800
C739        C  0.97284215  0.64663717  0.71378694     0.09700
C740        C  0.86672774  0.71001899  0.71049927     0.35600
C741        C  0.06316676  0.78905013  0.67510997     0.39000
C742        C  0.97699735  0.65190750  0.73175855    -0.04500
C743        C  0.98442776  0.60379653  0.74247284     0.02600
C744        C  0.98938438  0.54702197  0.73548160    -0.04100
C745        C  0.98300867  0.54320700  0.71689792    -0.00400
C746        C  0.97502600  0.59237476  0.70646751    -0.02900
C747        C  0.97639899  0.70831551  0.73926865     0.36300
C748        C  0.98035386  0.49018115  0.70767888     0.39900
C749        C  0.99288554  0.61599807  0.76066487     0.39100
C750        C  0.96771288  0.58735701  0.68787394     0.36000
C751        C  0.06744620  0.68438258  0.69289420     0.36700
C752        C  0.86226205  0.81675275  0.69350158     0.39900
N753        N  0.00012722  0.63061341  0.77476408    -0.38100
N754        N  0.97614306  0.75319973  0.74520155    -0.39700
N755        N  0.97626748  0.44955522  0.69946712    -0.37500
N756        N  0.96184805  0.58354133  0.67307247    -0.39900
N757        N  0.82655571  0.69257710  0.71716455    -0.39600
N758        N  0.81940795  0.84138880  0.69307846    -0.37300
N759        N  0.10170511  0.80227609  0.66682834    -0.38300
N760        N  0.10843078  0.65691264  0.69210556    -0.40000
C761        C  0.15241837  0.54063111  0.76550750    -0.04900
C762        C  0.16594142  0.49780583  0.77730697     0.09200
C763        C  0.12845111  0.45248662  0.77909981    -0.02300
C764        C  0.07552263  0.45157891  0.77005627    -0.00600
C765        C  0.05821359  0.49661935  0.75846092    -0.04200
C766        C  0.10197064  0.53849888  0.75534261     0.02800
C767        C  0.22214022  0.49864332  0.78693378     0.09700
C768        C  0.14412294  0.40695628  0.79082720     0.35600
C769        C  0.10261940  0.57552014  0.74042994     0.39000
C770        C  0.22808520  0.52973848  0.80235760    -0.04500
C771        C  0.28128998  0.53188303  0.81108627     0.02600
C772        C  0.32928549  0.50092387  0.80489405    -0.04100
C773        C  0.32267816  0.46976338  0.78922114    -0.00400
C774        C  0.27004680  0.47006149  0.78018234    -0.02900
C775        C  0.17923361  0.56026165  0.80917580     0.36300
C776        C  0.36893329  0.43535286  0.78240460     0.39900
C777        C  0.28631937  0.56796186  0.82610719     0.39100
C778        C  0.26516728  0.44148769  0.76365332     0.36000
C779        C  0.19297858  0.58608115  0.76316573     0.36700
C780        C  0.03860976  0.40460937  0.77397223     0.39900
N781        N  0.28945961  0.59749314  0.83796604    -0.38100
N782        N  0.14045275  0.58476683  0.81467867    -0.39700
N783        N  0.40548294  0.40758626  0.77691198    -0.37500
N784        N  0.26122608  0.41927562  0.75038898    -0.39900
N785        N  0.15679585  0.37079241  0.80017863    -0.39600
N786        N  0.01209255  0.36587243  0.77797377    -0.37300
N787        N  0.10635520  0.60514023  0.72861157    -0.38300
N788        N  0.22531149  0.62211255  0.76130169    -0.40000
C789        C  0.77084140  0.48628930  0.80364887    -0.04900
C790        C  0.78641286  0.52920443  0.79197200     0.09200
C791        C  0.75085004  0.57760232  0.79035072    -0.02300
C792        C  0.69847202  0.58113087  0.79936161    -0.00600
C793        C  0.68222686  0.53738037  0.81074204    -0.04200
C794        C  0.72047409  0.49149931  0.81345898     0.02800
C795        C  0.83993443  0.52274518  0.78127299     0.09700
C796        C  0.76776359  0.62342512  0.77912554     0.35600
C797        C  0.70935960  0.45040971  0.82686814     0.39000
C798        C  0.83633537  0.51405735  0.76340431    -0.04500
C799        C  0.88609062  0.50624087  0.75331068     0.02600
C800        C  0.94259467  0.50302309  0.76099394    -0.04100
C801        C  0.94446870  0.51322413  0.77947586    -0.00400
C802        C  0.89391501  0.52339065  0.78913369    -0.02900
C803        C  0.78024030  0.51021020  0.75542044     0.36300
C804        C  0.99657451  0.51851008  0.78939495     0.39900
C805        C  0.87618095  0.49592048  0.73505918     0.39100
C806        C  0.89720170  0.53586591  0.80753094     0.36000
C807        C  0.80599005  0.43574238  0.80526228     0.36700
C808        C  0.66042143  0.62868637  0.79622832     0.39900
N809        N  0.86398704  0.48700289  0.72082262    -0.38100
N810        N  0.73562733  0.50687165  0.74908664    -0.39700
N811        N  0.03579148  0.52465808  0.79830605    -0.37500
N812        N  0.89968628  0.54561041  0.82216139    -0.39900
N813        N  0.78123523  0.65989172  0.77013100    -0.39600
N814        N  0.63026386  0.66672941  0.79360739    -0.37300
N815        N  0.70174183  0.41792443  0.83774579    -0.38300
N816        N  0.83401897  0.39543682  0.80654607    -0.40000
C817        C  0.76478658  0.06933413  0.71123496    -0.04900
C818        C  0.74431691  0.02429087  0.72134770     0.09200
C819        C  0.78158352  0.97829886  0.72509088    -0.02300
C820        C  0.83610751  0.97487525  0.71743682    -0.00600
C821        C  0.85296398  0.01591809  0.70529962    -0.04200
C822        C  0.81851068  0.06496024  0.70312078     0.02800
C823        C  0.68375858  0.02490024  0.72799208     0.09700
C824        C  0.76390401  0.93362076  0.73662264     0.35600
C825        C  0.83876805  0.11138652  0.69265977     0.39000
C826        C  0.63708957  0.01950277  0.71661496    -0.04500
C827        C  0.58026910  0.01618415  0.72289235     0.02600
C828        C  0.56889938  0.01255877  0.74119712    -0.04100
C829        C  0.61816284  0.01893195  0.75236213    -0.00400
C830        C  0.67325088  0.02862060  0.74573151    -0.02900
C831        C  0.64778121  0.01772120  0.69813956     0.36300
C832        C  0.61550652  0.01019052  0.77087376     0.39900
C833        C  0.53589473  0.01941981  0.70984527     0.39100
C834        C  0.72025505  0.04153115  0.75734990     0.36000
C835        C  0.73036012  0.12011933  0.70911462     0.36700
C836        C  0.87404373  0.92824952  0.72184648     0.39900
N837        N  0.50272008  0.02341213  0.69877531    -0.38100
N838        N  0.65624559  0.01681959  0.68343047    -0.39700
N839        N  0.61804308  0.00259178  0.78561829    -0.37500
N840        N  0.75770701  0.05189994  0.76656005    -0.39900
N841        N  0.75115414  0.89793827  0.74600074    -0.39600
N842        N  0.90439819  0.89137489  0.72561301    -0.37300
N843        N  0.85521325  0.14839394  0.68436705    -0.38300
N844        N  0.70291472  0.16066190  0.70743048    -0.40000
C845        C  0.37540382  0.05579987  0.72085490    -0.04900
C846        C  0.35662584  0.00601272  0.71299707     0.09200
C847        C  0.38877513  0.95632957  0.71591106    -0.02300
C848        C  0.44046015  0.95803009  0.72559455    -0.00600
C849        C  0.45442699  0.00629539  0.73626972    -0.04200
C850        C  0.41384578  0.05253673  0.73482858     0.02800
C851        C  0.29949849  0.00540082  0.70378980     0.09700
C852        C  0.36828971  0.90289275  0.70924182     0.35600
C853        C  0.39771495  0.08907389  0.74900870     0.39000
C854        C  0.29416350  0.98756829  0.68639429    -0.04500
C855        C  0.23973306  0.98446882  0.67847645     0.02600
C856        C  0.19133320  0.00725992  0.68682793    -0.04100
C857        C  0.19680457  0.02698326  0.70395583    -0.00400
C858        C  0.24963653  0.02292933  0.71268837    -0.02900
C859        C  0.34458815  0.97380711  0.67645230     0.36300
C860        C  0.14791857  0.05049611  0.71291675     0.39900
C861        C  0.23323134  0.95525854  0.66215228     0.39100
C862        C  0.25214754  0.03608394  0.73100419     0.36000
C863        C  0.34979400  0.10984249  0.71613000     0.36700
C864        C  0.47780540  0.90929023  0.72383519     0.39900
N865        N  0.22807002  0.93051736  0.64935532    -0.38100
N866        N  0.38485964  0.96307699  0.66848361    -0.39700
N867        N  0.11005767  0.06983125  0.72047494    -0.37500
N868        N  0.25387303  0.04679104  0.74558166    -0.39900
N869        N  0.35189048  0.86026346  0.70396976    -0.39600
N870        N  0.50489197  0.86896677  0.72139622    -0.37300
N871        N  0.38166986  0.11813104  0.76001149    -0.38300
N872        N  0.32962157  0.15295920  0.71237672    -0.40000
C873        C  0.50698993  0.16317690  0.76651998    -0.04900
C874        C  0.49156076  0.15886271  0.78391430     0.09200
C875        C  0.48533376  0.10510081  0.79119414    -0.02300
C876        C  0.49325613  0.05523157  0.78115361    -0.00600
C877        C  0.50350119  0.05795721  0.76274135    -0.04200
C878        C  0.51292924  0.11438255  0.75603988     0.02800
C879        C  0.48672111  0.21150185  0.79486510     0.09700
C880        C  0.47235663  0.10142196  0.80949931     0.35600
C881        C  0.52344344  0.12507183  0.73786845     0.39000
C882        C  0.43318092  0.23604747  0.79876894    -0.04500
C883        C  0.42953749  0.28843025  0.80762653     0.02600
C884        C  0.47971816  0.31688621  0.81292013    -0.04100
C885        C  0.53335908  0.29013877  0.80963875    -0.00400
C886        C  0.53657141  0.23828954  0.80064163    -0.02900
C887        C  0.38145567  0.20790486  0.79343907     0.36300
C888        C  0.58619048  0.31487005  0.81560574     0.39900
C889        C  0.37378015  0.31363511  0.81053298     0.39100
C890        C  0.59172138  0.21254235  0.79702728     0.36000
C891        C  0.51490397  0.21910503  0.75917743     0.36700
C892        C  0.49554479  0.00335903  0.79099658     0.39900
N893        N  0.32919376  0.33361567  0.81277354    -0.38100
N894        N  0.33950014  0.18608837  0.78945912    -0.39700
N895        N  0.62878826  0.33379304  0.82029096    -0.37500
N896        N  0.63558404  0.19207338  0.79404694    -0.39900
N897        N  0.46199482  0.09873739  0.82406803    -0.39600
N898        N  0.49806366  0.96392507  0.79980750    -0.37300
N899        N  0.53116851  0.13728547  0.72360731    -0.38300
N900        N  0.52120156  0.26362983  0.75337835    -0.40000
C901        C  0.47161027  0.72815602  0.77597609    -0.04900
C902        C  0.49037915  0.77729923  0.78465136     0.09200
C903        C  0.51055268  0.77256154  0.80175637    -0.02300
C904        C  0.51105841  0.71981845  0.81025864    -0.00600
C905        C  0.49072858  0.67045303  0.80182210    -0.04200
C906        C  0.47178444  0.67500037  0.78449820     0.02800
C907        C  0.49379132  0.83340939  0.77542350     0.09700
C908        C  0.53312904  0.82189087  0.81045498     0.35600
C909        C  0.45222432  0.62515614  0.77545529     0.39000
C910        C  0.44641171  0.86993043  0.77420301    -0.04500
C911        C  0.45099639  0.92417005  0.76641005     0.02600
C912        C  0.50367171  0.94320882  0.75888399    -0.04100
C913        C  0.54867822  0.90055804  0.75836869    -0.00400
C914        C  0.54512994  0.84978158  0.76792417    -0.02900
C915        C  0.39284012  0.85198333  0.78158180     0.36300
C916        C  0.59443633  0.90033457  0.74585429     0.39900
C917        C  0.40065289  0.96017826  0.76698277     0.39100
C918        C  0.59458045  0.81241798  0.76943981     0.36000
C919        C  0.45338490  0.73223503  0.75810943     0.36700
C920        C  0.53643228  0.71625837  0.82738434     0.39900
N921        N  0.35913271  0.98672954  0.76800065    -0.38100
N922        N  0.35020919  0.83744439  0.78746183    -0.39700
N923        N  0.63008184  0.89676937  0.73562866    -0.37500
N924        N  0.63412956  0.78308030  0.77072507    -0.39900
N925        N  0.55181060  0.86077779  0.81745289    -0.39600
N926        N  0.55706257  0.71360530  0.84097231    -0.37300
N927        N  0.43683205  0.58521586  0.76825715    -0.38300
N928        N  0.43904146  0.73560830  0.74382350    -0.40000
C929        C  0.23866294  0.56073956  0.10304922    -0.04900
C930        C  0.22796353  0.52081806  0.08984039     0.09200
C931        C  0.26007326  0.47006421  0.08950367    -0.02300
C932        C  0.30229831  0.45948692  0.10213553    -0.00600
C933        C  0.31544842  0.50069369  0.11476786    -0.04200
C934        C  0.28319020  0.55129884  0.11517411     0.02800
C935        C  0.18344619  0.53111820  0.07608957     0.09700
C936        C  0.24996848  0.42857039  0.07598113     0.35600
C937        C  0.29776059  0.59467567  0.12758603     0.39000
C938        C  0.19247687  0.57123742  0.06288815    -0.04500
C939        C  0.15521769  0.57429275  0.04849633     0.02600
C940        C  0.11015068  0.53548293  0.04674932    -0.04100
C941        C  0.10078709  0.49593916  0.06012291    -0.00400
C942        C  0.13566573  0.49548820  0.07500221    -0.02900
C943        C  0.24103873  0.60841772  0.06388002     0.36300
C944        C  0.05685568  0.45377315  0.05830087     0.39900
C945        C  0.16360618  0.61706192  0.03538020     0.39100
C946        C  0.12339590  0.45705352  0.08906842     0.36000
C947        C  0.20402880  0.61158444  0.10414561     0.36700
C948        C  0.33007879  0.40466821  0.10234734     0.39900
N949        N  0.17028813  0.65111490  0.02489110    -0.38100
N950        N  0.27967194  0.63825021  0.06476153    -0.39700
N951        N  0.02213514  0.41975088  0.05693295    -0.37500
N952        N  0.11370380  0.42637045  0.10027673    -0.39900
N953        N  0.24139601  0.39545775  0.06529522    -0.39600
N954        N  0.34869809  0.35929158  0.10202963    -0.37300
N955        N  0.31004339  0.62911704  0.13749368    -0.38300
N956        N  0.17636696  0.65220471  0.10509410    -0.40000
C957        C  0.72859507  0.54325576  0.04769382    -0.04900
C958        C  0.73718332  0.50808328  0.06226994     0.09200
C959        C  0.78644741  0.47330561  0.06317880    -0.02300
C960        C  0.82553727  0.47273024  0.04949005    -0.00600
C961        C  0.82072231  0.51282541  0.03608139    -0.04200
C962        C  0.77167735  0.54785638  0.03513417     0.02800
C963        C  0.69621875  0.50940628  0.07704286     0.09700
C964        C  0.79838009  0.43970376  0.07848152     0.35600
C965        C  0.76612599  0.58944773  0.02148608     0.39000
C966        C  0.66847794  0.45952326  0.08236811    -0.04500
C967        C  0.63748620  0.45910284  0.09788130     0.02600
C968        C  0.62726375  0.51005306  0.10672363    -0.04100
C969        C  0.65182015  0.56054123  0.10092134    -0.00400
C970        C  0.68860520  0.55967882  0.08669248    -0.02900
C971        C  0.67167440  0.40873238  0.07191267     0.36300
C972        C  0.64093533  0.61324045  0.11000077     0.39900
C973        C  0.61904288  0.40610281  0.10523310     0.39100
C974        C  0.71984340  0.61026986  0.08241884     0.36000
C975        C  0.67577398  0.57511050  0.04571902     0.36700
C976        C  0.86951783  0.42941668  0.04884962     0.39900
N977        N  0.60628578  0.36354005  0.11136533    -0.38100
N978        N  0.67421173  0.36817785  0.06358666    -0.39700
N979        N  0.63296632  0.65544917  0.11717378    -0.37500
N980        N  0.74456418  0.65090166  0.07917774    -0.39900
N981        N  0.80786019  0.41307401  0.09071133    -0.39600
N982        N  0.90332790  0.39361475  0.04811799    -0.37300
N983        N  0.76182223  0.62272434  0.01060751    -0.38300
N984        N  0.63362534  0.60046804  0.04415359    -0.40000
C985        C  0.27063239  0.53093138  0.90120296    -0.04900
C986        C  0.25809139  0.48470382  0.91209430     0.09200
C987        C  0.28226004  0.43111536  0.90816867    -0.02300
C988        C  0.31530291  0.42345609  0.89311506    -0.00600
C989        C  0.33201774  0.47066395  0.88325821    -0.04200
C990        C  0.31063615  0.52473782  0.88772449     0.02800
C991        C  0.21895458  0.49216227  0.92743541     0.09700
C992        C  0.27496165  0.38407726  0.91992785     0.35600
C993        C  0.33018977  0.57434405  0.87863967     0.37000
C994        C  0.16833749  0.46057432  0.92860390    -0.04500
C995        C  0.13333742  0.46542202  0.94327376     0.02600
C996        C  0.14265525  0.50838785  0.95565367    -0.04100
C997        C  0.19275431  0.54079882  0.95444147    -0.00400
C998        C  0.23216475  0.53046699  0.94094667    -0.02900
C999        C  0.15083024  0.42438073  0.91444576     0.36300
C1000       C  0.20331091  0.58549562  0.96681329     0.39900
C1001       C  0.08822905  0.42508600  0.94585589     0.39100
C1002       C  0.28649713  0.55902823  0.94101399     0.36000
C1003       C  0.24161396  0.58474889  0.90360382     0.36700
C1004       C  0.33383237  0.36702779  0.88822191     0.39900
N1005       N  0.05314491  0.39206939  0.94814791    -0.38100
N1006       N  0.13674000  0.39561358  0.90314836    -0.39700
N1007       N  0.21177050  0.62117420  0.97669524    -0.37500
N1008       N  0.33005600  0.58146474  0.94099476    -0.39900
N1009       N  0.26926377  0.34656970  0.92931570    -0.39600
N1010       N  0.34790414  0.32184211  0.88428064    -0.37300
N1011       N  0.34654173  0.61427678  0.87172279    -0.38300
N1012       N  0.21823775  0.62761374  0.90542083    -0.40000
C1013       C  0.77428148  0.54528301  0.92890515    -0.04900
C1014       C  0.78785521  0.50571101  0.91586360     0.09200
C1015       C  0.83341027  0.46722380  0.91836841    -0.02300
C1016       C  0.86430937  0.46752256  0.93396805    -0.00600
C1017       C  0.85416237  0.51018372  0.94636069    -0.04200
C1018       C  0.80860926  0.54885725  0.94384913     0.02800
C1019       C  0.75144461  0.50173835  0.90005453     0.09700
C1020       C  0.84822506  0.42706793  0.90490533     0.35600
C1021       C  0.79691274  0.59209728  0.95666206     0.39000
C1022       C  0.75327465  0.54385262  0.88720653    -0.04500
C1023       C  0.71398933  0.54303422  0.87334214     0.02600
C1024       C  0.67347987  0.49917503  0.87207893    -0.04100
C1025       C  0.67864037  0.45247627  0.88350586    -0.00400
C1026       C  0.71476624  0.45554830  0.89799518    -0.02900
C1027       C  0.79463833  0.58875311  0.88856356     0.36300
C1028       C  0.64791211  0.40058597  0.88054522     0.39900
C1029       C  0.71589841  0.58700304  0.86032112     0.39100
C1030       C  0.71208697  0.41239491  0.91128789     0.36000
C1031       C  0.72410390  0.58119085  0.92711602     0.36700
C1032       C  0.90395784  0.42183624  0.93769360     0.39900
N1033       N  0.71758182  0.62203319  0.84992337    -0.38100
N1034       N  0.82771457  0.62448879  0.88970626    -0.39700
N1035       N  0.62513473  0.35816350  0.87820914    -0.37500
N1036       N  0.70975854  0.37829580  0.92195206    -0.39900
N1037       N  0.86000245  0.39516777  0.89413543    -0.39600
N1038       N  0.93394201  0.38397001  0.94065160    -0.37300
N1039       N  0.78751762  0.62646254  0.96692505    -0.38300
N1040       N  0.68374666  0.60935977  0.92569987    -0.40000
C1041       C  0.64939368  0.04356759  0.27985753    -0.04900
C1042       C  0.68919647  0.00050447  0.27599086     0.09200
C1043       C  0.67285003  0.95755911  0.26457816    -0.02300
C1044       C  0.61782547  0.95765865  0.25691208    -0.00600
C1045       C  0.57983320  0.00612167  0.25817775    -0.04200
C1046       C  0.59561784  0.04663062  0.27122969     0.02800
C1047       C  0.74632232  0.99684255  0.28521707     0.09700
C1048       C  0.71200727  0.91053001  0.26158914     0.35600
C1049       C  0.55929865  0.09464093  0.27529092     0.39000
C1050       C  0.74940331  0.97701817  0.30238095    -0.04500
C1051       C  0.80259981  0.97172669  0.31098116     0.02600
C1052       C  0.85406903  0.98754901  0.30271533    -0.04100
C1053       C  0.85110712  0.00338656  0.28509733    -0.00400
C1054       C  0.79770303  0.00838002  0.27647396    -0.02900
C1055       C  0.69764503  0.95978636  0.31099686     0.36300
C1056       C  0.90274786  0.01255321  0.27546493     0.39900
C1057       C  0.80438163  0.94541085  0.32790808     0.39100
C1058       C  0.79587412  0.02392858  0.25837324     0.36000
C1059       C  0.66510320  0.08654870  0.29233458     0.36700
C1060       C  0.59869480  0.90250565  0.25139856     0.39900
N1061       N  0.80579297  0.92380878  0.34131007    -0.38100
N1062       N  0.65631927  0.94590921  0.31781004    -0.39700
N1063       N  0.94324112  0.01857353  0.26727100    -0.37500
N1064       N  0.79511254  0.03561805  0.24386652    -0.39900
N1065       N  0.74321436  0.87318773  0.25920583    -0.39600
N1066       N  0.58458322  0.85703862  0.24814474    -0.37300
N1067       N  0.53293278  0.13419897  0.27915068    -0.38300
N1068       N  0.67774848  0.12071358  0.30229676    -0.40000
C1069       C  0.28132786  0.96421821  0.29457805    -0.04900
C1070       C  0.31366475  0.01415028  0.29338090     0.09200
C1071       C  0.29370504  0.06238615  0.30249603    -0.02300
C1072       C  0.23966538  0.06268417  0.31080920    -0.00600
C1073       C  0.20758570  0.01219218  0.31241899    -0.04200
C1074       C  0.23176926  0.96212796  0.30502612     0.02800
C1075       C  0.36817747  0.01617961  0.28255693     0.09700
C1076       C  0.32964896  0.11173303  0.30370153     0.35600
C1077       C  0.20809102  0.90709733  0.30868599     0.39000
C1078       C  0.37361125  0.05515575  0.26899388    -0.04500
C1079       C  0.42638839  0.06213756  0.26043181     0.02600
C1080       C  0.47051703  0.01913346  0.26085226    -0.04100
C1081       C  0.46442483  0.97986591  0.27508289    -0.00400
C1082       C  0.41581266  0.98124293  0.28620188    -0.02900
C1083       C  0.32491641  0.08995764  0.26397126     0.36300
C1084       C  0.50722801  0.93760610  0.27927041     0.39900
C1085       C  0.43641767  0.11927470  0.25490202     0.39100
C1086       C  0.41478410  0.94624783  0.30159920     0.36000
C1087       C  0.29839860  0.91439071  0.28489270     0.36700
C1088       C  0.21753167  0.11582179  0.31740119     0.39900
N1089       N  0.44189218  0.16617243  0.25122155    -0.38100
N1090       N  0.28623033  0.11771438  0.25991614    -0.39700
N1091       N  0.53910154  0.90334664  0.28406128    -0.37500
N1092       N  0.41392880  0.91838949  0.31386656    -0.39900
N1093       N  0.35865591  0.15083012  0.30474471    -0.39600
N1094       N  0.20000888  0.15852510  0.32251129    -0.37300
N1095       N  0.19058567  0.86278685  0.31184447    -0.38300
N1096       N  0.31137010  0.87419199  0.27729364    -0.40000
C1097       C  0.49890280  0.28291221  0.21658440    -0.04900
C1098       C  0.51198265  0.23359054  0.20707586     0.09200
C1099       C  0.52566779  0.23899897  0.18943154    -0.02300
C1100       C  0.52468750  0.29265502  0.18124492    -0.00600
C1101       C  0.50689922  0.34207439  0.19037962    -0.04200
C1102       C  0.49654078  0.33644721  0.20842824     0.02800
C1103       C  0.51672994  0.17665538  0.21597143     0.09700
C1104       C  0.54172051  0.18892568  0.17971200     0.35600
C1105       C  0.48565273  0.38560000  0.21916782     0.39000
C1106       C  0.47473835  0.13534911  0.21383886    -0.04500
C1107       C  0.47885127  0.08245191  0.22257650     0.02600
C1108       C  0.52464020  0.06997912  0.23463158    -0.04100
C1109       C  0.57117721  0.10989058  0.23412234    -0.00400
C1110       C  0.56547266  0.16295244  0.22566853    -0.02900
C1111       C  0.42524009  0.14877425  0.20320825     0.36300
C1112       C  0.62873052  0.09645967  0.23968939     0.39900
C1113       C  0.43256390  0.04357301  0.21957077     0.39100
C1114       C  0.61161978  0.20354866  0.22625652     0.36000
C1115       C  0.48868563  0.27939610  0.23501022     0.36700
C1116       C  0.54512454  0.29642853  0.16364887     0.39900
N1117       N  0.39415400  0.01515264  0.21631507    -0.38100
N1118       N  0.38574049  0.15967442  0.19479436    -0.39700
N1119       N  0.67600195  0.08819607  0.24329643    -0.37500
N1120       N  0.64819936  0.23593698  0.22661208    -0.39900
N1121       N  0.55421577  0.14882289  0.17199811    -0.39600
N1122       N  0.56234166  0.29904293  0.14969589    -0.37300
N1123       N  0.47757702  0.42420051  0.22802869    -0.38300
N1124       N  0.48085470  0.27913749  0.24975054    -0.40000
C1125       C  0.55362113  0.90419298  0.20899076    -0.04900
C1126       C  0.51641546  0.85974811  0.21258348     0.09200
C1127       C  0.47457932  0.86852683  0.22529870    -0.02300
C1128       C  0.47083126  0.92028275  0.23462340    -0.00600
C1129       C  0.51497004  0.96223520  0.23357450    -0.04200
C1130       C  0.55468004  0.95355813  0.21950998     0.02800
C1131       C  0.52024153  0.80413378  0.20275626     0.09700
C1132       C  0.43465817  0.82353291  0.22887474     0.35600
C1133       C  0.59952782  0.99291182  0.21558179     0.39000
C1134       C  0.56791986  0.76733680  0.20477967    -0.04500
C1135       C  0.56887769  0.71343104  0.19676765     0.02600
C1136       C  0.52171003  0.69488424  0.18685398    -0.04100
C1137       C  0.47631112  0.73342798  0.18368805    -0.00400
C1138       C  0.47589807  0.78771810  0.19141526    -0.02900
C1139       C  0.61676338  0.78477761  0.21493694     0.36300
C1140       C  0.43126442  0.71828139  0.17171040     0.39900
C1141       C  0.61864535  0.67715513  0.19890497     0.39100
C1142       C  0.43030268  0.82740964  0.18735948     0.36000
C1143       C  0.59198436  0.89846716  0.19438297     0.36700
C1144       C  0.41715265  0.93030713  0.24322089     0.39900
N1145       N  0.65894070  0.64899377  0.20050310    -0.38100
N1146       N  0.65675542  0.79815329  0.22266739    -0.39700
N1147       N  0.39571023  0.70622317  0.16202035    -0.37500
N1148       N  0.39400496  0.85916302  0.18409751    -0.39900
N1149       N  0.40275736  0.78778871  0.23168218    -0.39600
N1150       N  0.37233913  0.93660989  0.24911482    -0.37300
N1151       N  0.63665980  0.02089623  0.21101675    -0.38300
N1152       N  0.62253031  0.89374326  0.18277295    -0.40000
loop_ 
_geom_bond_atom_site_label_1 
_geom_bond_atom_site_label_2 
_geom_bond_distance 
_geom_bond_site_symmetry_2 
_ccdc_geom_bond_type 
C1         C1045   1.615       .  S
C1         C1080   1.634       .  S
C1         C1108   1.624       .  S
C1         C1129   1.618   1_545  S
N2            C7   1.354   1_556  A
N2            C6   1.357       .  A
N2           H34   1.041       .  S
N3           C10   1.351   1_655  A
N3           C11   1.351       .  A
N4            C9   1.351   1_556  A
N4            C8   1.350       .  A
N4           H35   1.041       .  S
N5           C12   1.351   1_655  A
N5           C13   1.352       .  A
C6           C14   1.386       .  A
C6           C22   1.421       .  A
C7           C23   1.421       .  A
C7           C15   1.387       .  A
C8           C16   1.387       .  A
C8           C25   1.411       .  A
C9           C24   1.412       .  A
C9           C17   1.387   1_554  A
C10          C22   1.415       .  A
C10          C18   1.387       .  A
C11          C25   1.413       .  A
C11          C19   1.386       .  A
C12          C20   1.387   1_455  A
C12          C23   1.415       .  A
C13          C21   1.386       .  A
C13          C24   1.415       .  A
C14          C15   1.382   1_556  A
C14          H26   1.082       .  S
C15          H27   1.082       .  S
C16          C17   1.379       .  A
C16          H28   1.082       .  S
C17          H29   1.082   1_556  S
C18          C19   1.374   1_455  A
C18          H30   1.082       .  S
C19          H31   1.082       .  S
C20          C21   1.374       .  A
C20          H32   1.082   1_655  S
C21          H33   1.082       .  S
C22         C996   1.512       .  S
C23         C940   1.505       .  S
C24         C961   1.498       .  S
C25        C1017   1.494       .  S
C36         C828   1.607       .  S
C36         C849   1.618       .  S
C36         C877   1.616       .  S
C36         C912   1.619   1_545  S
C37         C709   1.628       .  S
C37         C744   1.618       .  S
C37         C765   1.622   1_655  S
C37         C800   1.617       .  S
N38          C43   1.356   1_556  A
N38          C42   1.352       .  A
N38          H70   1.045   1_556  S
N39          C46   1.353   1_565  A
N39          C47   1.354       .  A
N40          C45   1.352       .  A
N40          C44   1.352   1_554  A
N40          H71   1.045       .  S
N41          C48   1.349       .  A
N41          C49   1.348   1_545  A
C42          C50   1.387       .  A
C42          C58   1.419       .  A
C43          C59   1.420       .  A
C43          C51   1.386       .  A
C44          C52   1.388       .  A
C44          C61   1.418       .  A
C45          C60   1.416       .  A
C45          C53   1.386       .  A
C46          C58   1.416       .  A
C46          C54   1.386       .  A
C47          C61   1.419       .  A
C47          C55   1.387       .  A
C48          C56   1.389       .  A
C48          C59   1.413       .  A
C49          C57   1.386       .  A
C49          C60   1.409       .  A
C50          C51   1.378   1_556  A
C50          H62   1.082       .  S
C51          H63   1.082       .  S
C52          C53   1.375   1_556  A
C52          H64   1.081       .  S
C53          H65   1.082       .  S
C54          C55   1.368   1_545  A
C54          H66   1.082       .  S
C55          H67   1.082       .  S
C56          C57   1.364   1_545  A
C56          H68   1.081       .  S
C57          H69   1.083       .  S
C58         C653   1.496       .  S
C59         C597   1.498       .  S
C60         C625   1.491       .  S
C61         C681   1.499       .  S
O72          C80   1.255       .  A
O72         Co92   1.994       .  S
O73          C81   1.276       .  A
O73         Co93   2.020       .  S
O74          C82   1.258       .  A
O74         Co94   1.954       .  S
O75          C83   1.273       .  A
O75         Co95   1.902       .  S
O76          C82   1.281       .  A
O76         Co93   2.060       .  S
O77          C83   1.298       .  A
O77         Co92   2.109       .  S
O78          C81   1.271       .  A
O78         Co95   1.986       .  S
O79          C80   1.259       .  A
O79         Co94   1.991       .  S
C80         C688   1.512       .  S
C81         C772   1.518       .  S
C82         C905   1.505       .  S
C83         C989   1.492       .  S
O84          C97   1.253       .  A
O84         Co92   1.872       .  S
O85          C98   1.259       .  A
O85         Co93   1.966       .  S
O86          C99   1.279       .  A
O86         Co94   2.029       .  S
O87         C100   1.271       .  A
O87         Co95   2.021       .  S
O88         C100   1.260       .  A
O88         Co93   1.972       .  S
O89          C99   1.266       .  A
O89         Co92   1.962       .  S
O90          C97   1.300       .  A
O90         Co95   2.137       .  S
O91          C98   1.273       .  A
O91         Co94   2.040       .  S
Co92         O96   1.977       .  S
Co93         O96   2.034       .  S
Co94         O96   2.049       .  S
Co95         O96   2.042       .  S
C97         C660   1.494       .  S
C98         C793   1.501       .  S
C99        C1024   1.497       .  S
C100        C884   1.513       .  S
O101        C109   1.264       .  A
O101       Co121   1.981       .  S
O102        C110   1.230       .  A
O102       Co122   1.927       .  S
O103        C111   1.282       .  A
O103       Co123   2.042       .  S
O104        C112   1.273       .  A
O104       Co124   2.022       .  S
O105        C111   1.261       .  A
O105       Co122   1.946       .  S
O106        C112   1.263       .  A
O106       Co121   1.981       .  S
O107        C110   1.271       .  A
O107       Co124   2.074       .  S
O108        C109   1.271       .  A
O108       Co123   2.024       .  S
C109       C1136   1.505       .  S
C110        C933   1.491       .  S
C111        C632   1.491       .  S
C112        C548   1.496       .  S
O113        C126   1.278       .  A
O113       Co121   2.030       .  S
O114        C127   1.241       .  A
O114       Co122   1.938       .  S
O115        C128   1.257       .  A
O115       Co123   1.960       .  S
O116        C129   1.277       .  A
O116       Co124   1.918       .  S
O117        C129   1.291       .  A
O117       Co122   2.054       .  S
O118        C128   1.278       .  A
O118       Co121   2.051       .  S
O119        C126   1.268       .  A
O119       Co124   1.983       .  S
O120        C127   1.261       .  A
O120       Co123   2.012       .  S
Co121       O125   2.038       .  S
Co122       O125   2.032       .  S
Co123       O125   2.080       .  S
Co124       O125   2.003       .  S
C126       C1101   1.524       .  S
C127        C968   1.462       .  S
C128        C576   1.524       .  S
C129        C604   1.492       .  S
O130        C138   1.285       .  A
O130       Co150   2.054   1_545  S
O131        C139   1.264   1_565  A
O131       Co151   2.008   1_655  S
O132        C140   1.265       .  A
O132       Co152   1.928       .  S
O133        C141   1.253       .  A
O133       Co153   1.959   1_545  S
O134        C140   1.286       .  A
O134       Co151   2.085   1_545  S
O135        C141   1.269   1_565  A
O135       Co150   2.027   1_655  S
O136        C139   1.254       .  A
O136       Co153   1.974   1_545  S
O137        C138   1.271       .  A
O137       Co152   1.982       .  S
C138        C716   1.519       .  S
C139        C457   1.492       .  S
C140        C485   1.492       .  S
C141        C821   1.497       .  S
O142        C155   1.265   1_455  A
O142       Co150   1.963       .  S
O143        C156   1.266       .  A
O143       Co151   1.894       .  S
O144        C157   1.262       .  A
O144       Co152   2.012       .  S
O145        C158   1.278       .  A
O145       Co153   2.047       .  S
O146        C158   1.270   1_455  A
O146       Co151   1.982       .  S
O147        C157   1.256   1_565  A
O147       Co150   1.987       .  S
O148        C155   1.281       .  A
O148       Co153   2.046       .  S
O149        C156   1.295   1_545  A
O149       Co152   2.099       .  S
Co150       O154   2.052   1_455  S
Co151       O154   2.019   1_455  S
Co152       O154   2.036   1_445  S
Co153       O154   2.043       .  S
C155        C737   1.514       .  S
C156        C429   1.492       .  S
C157        C856   1.490       .  S
C158        C513   1.506       .  S
O159        C167   1.253   1_565  A
O159       Co179   1.976       .  S
O160        C168   1.282       .  A
O160       Co180   2.010       .  S
O161        C169   1.278   1_545  A
O161       Co181   2.057       .  S
O162        C170   1.277       .  A
O162       Co182   2.050       .  S
O163        C169   1.268       .  A
O163       Co180   1.952       .  S
O164        C170   1.262   1_455  A
O164       Co179   1.971       .  S
O165        C168   1.286   1_655  A
O165       Co182   2.061       .  S
O166        C167   1.269       .  A
O166       Co181   2.051       .  S
C167       C1073   1.535       .  S
C168        C352   1.513       .  S
C169        C373   1.507       .  S
C170        C261   1.528       .  S
O171        C184   1.272       .  A
O171       Co179   2.050   1_655  S
O172        C185   1.268       .  A
O172       Co180   1.928   1_545  S
O173        C186   1.258       .  A
O173       Co181   1.957       .  S
O174        C187   1.253   1_545  A
O174       Co182   1.995   1_545  S
O175        C187   1.252       .  A
O175       Co180   2.016   1_655  S
O176        C186   1.283       .  A
O176       Co179   2.069   1_545  S
O177        C184   1.253       .  A
O177       Co182   1.963       .  S
O178        C185   1.293       .  A
O178       Co181   2.079       .  S
Co179       O183   2.088       .  S
Co180       O183   1.953       .  S
Co181       O183   2.166   1_545  S
Co182       O183   2.073   1_655  S
C184       C1052   1.513       .  S
C185        C324   1.510       .  S
C186        C296   1.527       .  S
C187        C401   1.515   1_565  S
N188        C193   1.354       .  A
N188        C192   1.352       .  A
N188        H220   1.041       .  S
N189        C196   1.355       .  A
N189        C197   1.353       .  A
N190        C195   1.357       .  A
N190        C194   1.355       .  A
N190        H221   1.040       .  S
N191        C198   1.350       .  A
N191        C199   1.349       .  A
C192        C200   1.386   1_655  A
C192        C208   1.416       .  A
C193        C209   1.417       .  A
C193        C201   1.387   1_655  A
C194        C202   1.388       .  A
C194        C211   1.422       .  A
C195        C210   1.420       .  A
C195        C203   1.386       .  A
C196        C208   1.419       .  A
C196        C204   1.386       .  A
C197        C211   1.417       .  A
C197        C205   1.386       .  A
C198        C206   1.386       .  A
C198        C209   1.411       .  A
C199        C207   1.386       .  A
C199        C210   1.410       .  A
C200        C201   1.379       .  A
C200        H212   1.082       .  S
C201        H213   1.082       .  S
C202        C203   1.381       .  A
C202        H214   1.082       .  S
C203        H215   1.082       .  S
C204        C205   1.376       .  A
C204        H216   1.082       .  S
C205        H217   1.082       .  S
C206        C207   1.371       .  A
C206        H218   1.082       .  S
C207        H219   1.082       .  S
C208        C317   1.507       .  S
C209        C492   1.501       .  S
C210        C520   1.500       .  S
C211        C345   1.503       .  S
N222        C227   1.353       .  A
N222        C226   1.351       .  A
N222        H254   1.039       .  S
N223        C230   1.350       .  A
N223        C231   1.351       .  A
N224        C229   1.353       .  A
N224        C228   1.354       .  A
N224        H255   1.039       .  S
N225        C232   1.351       .  A
N225        C233   1.350       .  A
C226        C234   1.387       .  A
C226        C242   1.414       .  A
C227        C243   1.414       .  A
C227        C235   1.386       .  A
C228        C236   1.387   1_545  A
C228        C245   1.417       .  A
C229        C244   1.417       .  A
C229        C237   1.387   1_545  A
C230        C242   1.410       .  A
C230        C238   1.386       .  A
C231        C245   1.412       .  A
C231        C239   1.386       .  A
C232        C240   1.385       .  A
C232        C243   1.410       .  A
C233        C241   1.388       .  A
C233        C244   1.413       .  A
C234        C235   1.378       .  A
C234        H246   1.082       .  S
C235        H247   1.082       .  S
C236        C237   1.380       .  A
C236        H248   1.082       .  S
C237        H249   1.082       .  S
C238        C239   1.371       .  A
C238        H250   1.082       .  S
C239        H251   1.082       .  S
C240        C241   1.371       .  A
C240        H252   1.082       .  S
C241        H253   1.082       .  S
C242        C464   1.489       .  S
C243        C408   1.495       .  S
C244        C380   1.495   1_545  S
C245        C436   1.498       .  S
C256        C268   1.630       .  S
C256        C289   1.624   1_655  S
C256        C541   1.615   1_655  S
C256        C569   1.632       .  S
C257        C258   1.412   1_455  A
C257        C262   1.418       .  A
C257        C275   1.451       .  S
C258        C259   1.416       .  A
C258        C263   1.525       .  S
C259        C260   1.423       .  A
C259        C264   1.451       .  S
C260        C261   1.424       .  A
C260        C276   1.450       .  S
C261        C262   1.427   1_655  A
C262        C265   1.451       .  S
C263        C266   1.403   1_655  A
C263        C270   1.401       .  A
C264        N281   1.157       .  T
C265        N283   1.157       .  T
C266        C267   1.428       .  A
C266        C271   1.454       .  S
C267        C268   1.451   1_455  A
C267        C273   1.445       .  S
C268        C269   1.452       .  A
C269        C270   1.425       .  A
C269        C272   1.438       .  S
C270        C274   1.457       .  S
C271        N278   1.157       .  T
C272        N279   1.155       .  T
C273        N277   1.157       .  T
C274        N280   1.157       .  T
C275        N284   1.157       .  T
C276        N282   1.158       .  T
C285        C286   1.403       .  A
C285        C290   1.422       .  A
C285        C303   1.458       .  S
C286        C287   1.411   1_455  A
C286        C291   1.526       .  S
C287        C288   1.428       .  A
C287        C292   1.452       .  S
C288        C289   1.445   1_655  A
C288        C304   1.450       .  S
C289        C290   1.453       .  A
C290        C293   1.449       .  S
C291        C294   1.412       .  A
C291        C298   1.419       .  A
C292        N309   1.157       .  T
C293        N311   1.158       .  T
C294        C295   1.421       .  A
C294        C299   1.452       .  S
C295        C296   1.432       .  A
C295        C301   1.452       .  S
C296        C297   1.420       .  A
C297        C298   1.420       .  A
C297        C300   1.448       .  S
C298        C302   1.451       .  S
C299        N306   1.157       .  T
C300        N307   1.157       .  T
C301        N305   1.157       .  T
C302        N308   1.157       .  T
C303        N312   1.157       .  T
C304        N310   1.157       .  T
C313        C314   1.412   1_455  A
C313        C318   1.413       .  A
C313        C331   1.450       .  S
C314        C315   1.412       .  A
C314        C319   1.504   1_655  S
C315        C316   1.414       .  A
C315        C320   1.450       .  S
C316        C317   1.416       .  A
C316        C332   1.450       .  S
C317        C318   1.415   1_655  A
C318        C321   1.450       .  S
C319        C322   1.408       .  A
C319        C326   1.410   1_455  A
C320        N337   1.157       .  T
C321        N339   1.157       .  T
C322        C323   1.414       .  A
C322        C327   1.452       .  S
C323        C324   1.423       .  A
C323        C329   1.448       .  S
C324        C325   1.423   1_455  A
C325        C326   1.416       .  A
C325        C328   1.451       .  S
C326        C330   1.450       .  S
C327        N334   1.157       .  T
C328        N335   1.158       .  T
C329        N333   1.156       .  T
C330        N336   1.157       .  T
C331        N340   1.157       .  T
C332        N338   1.157       .  T
C341        C342   1.415       .  A
C341        C346   1.416       .  A
C341        C359   1.450       .  S
C342        C343   1.415   1_655  A
C342        C347   1.510       .  S
C343        C344   1.413       .  A
C343        C348   1.450       .  S
C344        C345   1.412   1_455  A
C344        C360   1.451       .  S
C345        C346   1.412       .  A
C346        C349   1.449       .  S
C347        C350   1.408   1_655  A
C347        C354   1.412       .  A
C348        N365   1.157       .  T
C349        N367   1.157       .  T
C350        C351   1.414       .  A
C350        C355   1.453       .  S
C351        C352   1.423       .  A
C351        C357   1.443       .  S
C352        C353   1.415   1_455  A
C353        C354   1.419       .  A
C353        C356   1.443       .  S
C354        C358   1.450       .  S
C355        N362   1.157       .  T
C356        N363   1.155       .  T
C357        N361   1.155       .  T
C358        N364   1.157       .  T
C359        N368   1.157       .  T
C360        N366   1.157       .  T
C369        C370   1.412   1_545  A
C369        C374   1.414       .  A
C369        C387   1.452       .  S
C370        C371   1.414       .  A
C370        C375   1.507       .  S
C371        C372   1.412       .  A
C371        C376   1.450       .  S
C372        C373   1.415       .  A
C372        C388   1.449       .  S
C373        C374   1.421   1_565  A
C374        C377   1.448       .  S
C375        C378   1.420   1_565  A
C375        C382   1.415       .  A
C376        N393   1.157       .  T
C377        N395   1.157       .  T
C378        C379   1.410       .  A
C378        C383   1.450       .  S
C379        C380   1.408   1_545  A
C379        C385   1.452       .  S
C380        C381   1.412       .  A
C381        C382   1.412       .  A
C381        C384   1.451       .  S
C382        C386   1.450       .  S
C383        N390   1.157       .  T
C384        N391   1.157       .  T
C385        N389   1.157       .  T
C386        N392   1.157       .  T
C387        N396   1.157       .  T
C388        N394   1.157       .  T
C397        C398   1.404       .  A
C397        C402   1.412       .  A
C397        C415   1.454       .  S
C398        C399   1.407       .  A
C398        C403   1.498       .  S
C399        C400   1.416       .  A
C399        C404   1.451       .  S
C400        C401   1.427       .  A
C400        C416   1.450       .  S
C401        C402   1.426       .  A
C402        C405   1.444   1_545  S
C403        C406   1.412       .  A
C403        C410   1.412   1_545  A
C404        N421   1.157       .  T
C405        N423   1.155       .  T
C406        C407   1.411       .  A
C406        C411   1.450       .  S
C407        C408   1.411       .  A
C407        C413   1.449       .  S
C408        C409   1.412   1_545  A
C409        C410   1.410       .  A
C409        C412   1.451       .  S
C410        C414   1.450       .  S
C411        N418   1.157       .  T
C412        N419   1.157       .  T
C413        N417   1.157       .  T
C414        N420   1.157       .  T
C415        N424   1.157       .  T
C416        N422   1.157       .  T
C425        C426   1.408       .  A
C425        C430   1.408       .  A
C425        C443   1.451       .  S
C426        C427   1.412   1_565  A
C426        C431   1.498       .  S
C427        C428   1.415       .  A
C427        C432   1.450       .  S
C428        C429   1.415   1_545  A
C428        C444   1.451       .  S
C429        C430   1.412       .  A
C430        C433   1.446       .  S
C431        C434   1.413   1_565  A
C431        C438   1.410       .  A
C432        N449   1.157       .  T
C433        N451   1.156       .  T
C434        C435   1.412       .  A
C434        C439   1.450       .  S
C435        C436   1.412       .  A
C435        C441   1.450       .  S
C436        C437   1.414   1_545  A
C437        C438   1.411       .  A
C437        C440   1.450       .  S
C438        C442   1.450       .  S
C439        N446   1.157       .  T
C440        N447   1.157       .  T
C441        N445   1.157       .  T
C442        N448   1.157       .  T
C443        N452   1.157       .  T
C444        N450   1.158       .  T
C453        C454   1.410       .  A
C453        C458   1.411       .  A
C453        C471   1.452       .  S
C454        C455   1.409       .  A
C454        C459   1.494       .  S
C455        C456   1.408       .  A
C455        C460   1.451       .  S
C456        C457   1.414       .  A
C456        C472   1.450       .  S
C457        C458   1.422       .  A
C458        C461   1.452       .  S
C459        C462   1.413       .  A
C459        C466   1.413       .  A
C460        N477   1.157       .  T
C461        N479   1.158       .  T
C462        C463   1.410       .  A
C462        C467   1.450       .  S
C463        C464   1.410       .  A
C463        C469   1.450       .  S
C464        C465   1.410       .  A
C465        C466   1.407       .  A
C465        C468   1.451   1_545  S
C466        C470   1.451   1_545  S
C467        N474   1.157       .  T
C468        N475   1.157       .  T
C469        N473   1.157       .  T
C470        N476   1.157       .  T
C471        N480   1.157       .  T
C472        N478   1.157       .  T
C481        C482   1.409       .  A
C481        C486   1.410       .  A
C481        C499   1.453       .  S
C482        C483   1.412   1_455  A
C482        C487   1.501       .  S
C483        C484   1.415       .  A
C483        C488   1.450       .  S
C484        C485   1.416   1_655  A
C484        C500   1.451       .  S
C485        C486   1.414       .  A
C486        C489   1.443       .  S
C487        C490   1.412   1_455  A
C487        C494   1.412       .  A
C488        N505   1.157       .  T
C489        N507   1.155       .  T
C490        C491   1.410       .  A
C490        C495   1.446       .  S
C491        C492   1.413       .  A
C491        C497   1.451       .  S
C492        C493   1.417   1_655  A
C493        C494   1.410       .  A
C493        C496   1.451       .  S
C494        C498   1.451       .  S
C495        N502   1.155       .  T
C496        N503   1.157       .  T
C497        N501   1.157       .  T
C498        N504   1.157       .  T
C499        N508   1.157       .  T
C500        N506   1.157       .  T
C509        C510   1.410       .  A
C509        C514   1.420       .  A
C509        C527   1.450       .  S
C510        C511   1.403       .  A
C510        C515   1.503       .  S
C511        C512   1.411       .  A
C511        C516   1.455       .  S
C512        C513   1.423       .  A
C512        C528   1.443       .  S
C513        C514   1.416       .  A
C514        C517   1.444       .  S
C515        C518   1.414       .  A
C515        C522   1.411       .  A
C516        N533   1.157       .  T
C517        N535   1.155       .  T
C518        C519   1.415       .  A
C518        C523   1.450       .  S
C519        C520   1.411       .  A
C519        C525   1.449       .  S
C520        C521   1.414       .  A
C521        C522   1.411       .  A
C521        C524   1.450   1_655  S
C522        C526   1.450   1_655  S
C523        N530   1.157       .  T
C524        N531   1.157       .  T
C525        N529   1.157       .  T
C526        N532   1.157       .  T
C527        N536   1.157       .  T
C528        N534   1.155       .  T
C537        C538   1.407       .  A
C537        C542   1.423       .  A
C537        C555   1.456       .  S
C538        C539   1.409       .  A
C538        C543   1.523       .  S
C539        C540   1.425       .  A
C539        C544   1.454       .  S
C540        C541   1.444       .  A
C540        C556   1.448       .  S
C541        C542   1.448       .  A
C542        C545   1.449       .  S
C543        C546   1.418       .  A
C543        C550   1.419       .  A
C544        N561   1.157       .  T
C545        N563   1.157       .  T
C546        C547   1.413       .  A
C546        C551   1.450       .  S
C547        C548   1.414       .  A
C547        C553   1.452       .  S
C548        C549   1.414       .  A
C549        C550   1.419       .  A
C549        C552   1.447       .  S
C550        C554   1.450       .  S
C551        N558   1.157       .  T
C552        N559   1.156       .  T
C553        N557   1.157       .  T
C554        N560   1.157       .  T
C555        N564   1.157       .  T
C556        N562   1.157   1_455  T
C565        C566   1.406       .  A
C565        C570   1.427       .  A
C565        C583   1.454       .  S
C566        C567   1.400       .  A
C566        C571   1.519       .  S
C567        C568   1.423       .  A
C567        C572   1.454       .  S
C568        C569   1.451       .  A
C568        C584   1.446       .  S
C569        C570   1.450       .  A
C570        C573   1.447       .  S
C571        C574   1.409       .  A
C571        C578   1.414       .  A
C572        N589   1.157       .  T
C573        N591   1.158       .  T
C574        C575   1.418       .  A
C574        C579   1.452       .  S
C575        C576   1.429       .  A
C575        C581   1.451       .  S
C576        C577   1.423       .  A
C577        C578   1.421       .  A
C577        C580   1.450       .  S
C578        C582   1.449       .  S
C579        N586   1.157       .  T
C580        N587   1.157       .  T
C581        N585   1.158       .  T
C582        N588   1.157       .  T
C583        N592   1.157       .  T
C584        N590   1.157       .  T
C593        C594   1.411       .  A
C593        C598   1.409       .  A
C593        C611   1.451       .  S
C594        C595   1.410       .  A
C594        C599   1.493       .  S
C595        C596   1.409       .  A
C595        C600   1.451       .  S
C596        C597   1.414       .  A
C596        C612   1.450       .  S
C597        C598   1.414       .  A
C598        C601   1.450       .  S
C599        C602   1.403       .  A
C599        C606   1.412       .  A
C600        N617   1.157       .  T
C601        N619   1.157       .  T
C602        C603   1.401       .  A
C602        C607   1.454       .  S
C603        C604   1.425       .  A
C603        C609   1.453       .  S
C604        C605   1.418       .  A
C605        C606   1.416       .  A
C605        C608   1.451       .  S
C606        C610   1.450       .  S
C607        N614   1.157       .  T
C608        N615   1.158       .  T
C609        N613   1.157       .  T
C610        N616   1.157       .  T
C611        N620   1.157       .  T
C612        N618   1.157       .  T
C621        C622   1.412       .  A
C621        C626   1.406       .  A
C621        C639   1.451       .  S
C622        C623   1.408       .  A
C622        C627   1.486       .  S
C623        C624   1.405       .  A
C623        C628   1.451       .  S
C624        C625   1.416       .  A
C624        C640   1.451       .  S
C625        C626   1.410       .  A
C626        C629   1.451       .  S
C627        C630   1.406       .  A
C627        C634   1.401       .  A
C628        N645   1.157       .  T
C629        N647   1.157       .  T
C630        C631   1.411       .  A
C630        C635   1.450       .  S
C631        C632   1.420       .  A
C631        C637   1.450       .  S
C632        C633   1.426       .  A
C633        C634   1.403       .  A
C633        C636   1.448       .  S
C634        C638   1.456       .  S
C635        N642   1.157       .  T
C636        N643   1.156       .  T
C637        N641   1.157       .  T
C638        N644   1.157       .  T
C639        N648   1.157       .  T
C640        N646   1.157       .  T
C649        C650   1.411       .  A
C649        C654   1.411       .  A
C649        C667   1.450       .  S
C650        C651   1.412       .  A
C650        C655   1.496       .  S
C651        C652   1.410       .  A
C651        C656   1.450       .  S
C652        C653   1.411       .  A
C652        C668   1.451       .  S
C653        C654   1.413       .  A
C654        C657   1.450       .  S
C655        C658   1.406       .  A
C655        C662   1.411       .  A
C656        N673   1.157       .  T
C657        N675   1.157       .  T
C658        C659   1.407       .  A
C658        C663   1.453       .  S
C659        C660   1.422       .  A
C659        C665   1.453       .  S
C660        C661   1.414       .  A
C661        C662   1.417       .  A
C661        C664   1.446       .  S
C662        C666   1.450       .  S
C663        N670   1.157       .  T
C664        N671   1.156       .  T
C665        N669   1.157       .  T
C666        N672   1.157       .  T
C667        N676   1.157       .  T
C668        N674   1.157       .  T
C677        C678   1.411       .  A
C677        C682   1.410       .  A
C677        C695   1.449       .  S
C678        C679   1.411       .  A
C678        C683   1.497       .  S
C679        C680   1.410       .  A
C679        C684   1.451       .  S
C680        C681   1.415       .  A
C680        C696   1.451       .  S
C681        C682   1.414       .  A
C682        C685   1.450       .  S
C683        C686   1.407       .  A
C683        C690   1.405       .  A
C684        N701   1.157       .  T
C685        N703   1.157       .  T
C686        C687   1.413       .  A
C686        C691   1.452       .  S
C687        C688   1.425       .  A
C687        C693   1.451       .  S
C688        C689   1.431       .  A
C689        C690   1.412       .  A
C689        C692   1.452       .  S
C690        C694   1.453       .  S
C691        N698   1.157       .  T
C692        N699   1.158       .  T
C693        N697   1.157       .  T
C694        N700   1.157       .  T
C695        N704   1.157       .  T
C696        N702   1.157       .  T
C705        C706   1.409       .  A
C705        C710   1.424       .  A
C705        C723   1.454       .  S
C706        C707   1.404   1_455  A
C706        C711   1.526       .  S
C707        C708   1.421       .  A
C707        C712   1.454       .  S
C708        C709   1.454       .  A
C708        C724   1.450       .  S
C709        C710   1.448   1_655  A
C710        C713   1.449       .  S
C711        C714   1.420   1_455  A
C711        C718   1.412       .  A
C712        N729   1.157       .  T
C713        N731   1.157       .  T
C714        C715   1.424       .  A
C714        C719   1.450       .  S
C715        C716   1.422   1_655  A
C715        C721   1.450       .  S
C716        C717   1.422       .  A
C717        C718   1.414       .  A
C717        C720   1.447       .  S
C718        C722   1.452       .  S
C719        N726   1.157       .  T
C720        N727   1.156       .  T
C721        N725   1.157       .  T
C722        N728   1.157       .  T
C723        N732   1.157       .  T
C724        N730   1.158       .  T
C733        C734   1.411   1_455  A
C733        C738   1.415       .  A
C733        C751   1.450       .  S
C734        C735   1.414       .  A
C734        C739   1.517       .  S
C735        C736   1.420       .  A
C735        C740   1.451       .  S
C736        C737   1.422       .  A
C736        C752   1.450       .  S
C737        C738   1.423   1_655  A
C738        C741   1.452       .  S
C739        C742   1.400       .  A
C739        C746   1.404       .  A
C740        N757   1.157       .  T
C741        N759   1.157       .  T
C742        C743   1.418       .  A
C742        C747   1.456       .  S
C743        C744   1.452       .  A
C743        C749   1.451       .  S
C744        C745   1.449       .  A
C745        C746   1.428       .  A
C745        C748   1.445       .  S
C746        C750   1.454       .  S
C747        N754   1.157       .  T
C748        N755   1.157       .  T
C749        N753   1.157   1_655  T
C750        N756   1.157       .  T
C751        N760   1.157       .  T
C752        N758   1.158       .  T
C761        C762   1.398       .  A
C761        C766   1.420       .  A
C761        C779   1.456       .  S
C762        C763   1.402       .  A
C762        C767   1.512       .  S
C763        C764   1.423       .  A
C763        C768   1.453       .  S
C764        C765   1.448       .  A
C764        C780   1.450       .  S
C765        C766   1.456       .  A
C766        C769   1.451       .  S
C767        C770   1.410       .  A
C767        C774   1.409       .  A
C768        N785   1.157       .  T
C769        N787   1.158       .  T
C770        C771   1.418       .  A
C770        C775   1.450       .  S
C771        C772   1.422       .  A
C771        C777   1.448       .  S
C772        C773   1.428       .  A
C773        C774   1.417       .  A
C773        C776   1.452       .  S
C774        C778   1.452       .  S
C775        N782   1.157       .  T
C776        N783   1.158       .  T
C777        N781   1.156       .  T
C778        N784   1.157       .  T
C779        N788   1.157       .  T
C780        N786   1.157       .  T
C789        C790   1.413       .  A
C789        C794   1.413       .  A
C789        C807   1.451       .  S
C790        C791   1.416       .  A
C790        C795   1.515       .  S
C791        C792   1.418       .  A
C791        C796   1.451       .  S
C792        C793   1.417       .  A
C792        C808   1.449       .  S
C793        C794   1.417       .  A
C794        C797   1.450       .  S
C795        C798   1.401       .  A
C795        C802   1.403       .  A
C796        N813   1.157       .  T
C797        N815   1.157       .  T
C798        C799   1.419       .  A
C798        C803   1.455       .  S
C799        C800   1.452       .  A
C799        C805   1.452       .  S
C800        C801   1.452       .  A
C801        C802   1.424       .  A
C801        C804   1.447       .  S
C802        C806   1.457       .  S
C803        N810   1.157       .  T
C804        N811   1.158   1_655  T
C805        N809   1.157       .  T
C806        N812   1.157       .  T
C807        N816   1.157       .  T
C808        N814   1.157       .  T
C817        C818   1.413       .  A
C817        C822   1.414       .  A
C817        C835   1.450       .  S
C818        C819   1.419   1_545  A
C818        C823   1.514       .  S
C819        C820   1.415       .  A
C819        C824   1.450       .  S
C820        C821   1.413   1_565  A
C820        C836   1.451       .  S
C821        C822   1.417       .  A
C822        C825   1.452       .  S
C823        C826   1.409       .  A
C823        C830   1.399       .  A
C824        N841   1.157       .  T
C825        N843   1.157       .  T
C826        C827   1.425       .  A
C826        C831   1.454       .  S
C827        C828   1.447       .  A
C827        C833   1.449       .  S
C828        C829   1.449       .  A
C829        C830   1.415       .  A
C829        C832   1.450       .  S
C830        C834   1.455       .  S
C831        N838   1.157       .  T
C832        N839   1.157       .  T
C833        N837   1.158       .  T
C834        N840   1.157       .  T
C835        N844   1.157       .  T
C836        N842   1.157       .  T
C845        C846   1.400       .  A
C845        C850   1.407       .  A
C845        C863   1.454       .  S
C846        C847   1.408   1_545  A
C846        C851   1.515       .  S
C847        C848   1.424       .  A
C847        C852   1.452       .  S
C848        C849   1.449   1_565  A
C848        C864   1.448       .  S
C849        C850   1.447       .  A
C850        C853   1.447       .  S
C851        C854   1.417   1_545  A
C851        C858   1.419       .  A
C852        N869   1.157       .  T
C853        N871   1.157       .  T
C854        C855   1.417       .  A
C854        C859   1.449       .  S
C855        C856   1.412   1_565  A
C855        C861   1.449       .  S
C856        C857   1.412       .  A
C857        C858   1.412       .  A
C857        C860   1.450       .  S
C858        C862   1.453       .  S
C859        N866   1.157       .  T
C860        N867   1.157       .  T
C861        N865   1.157       .  T
C862        N868   1.157       .  T
C863        N872   1.157       .  T
C864        N870   1.157       .  T
C873        C874   1.401       .  A
C873        C878   1.417       .  A
C873        C891   1.456       .  S
C874        C875   1.402       .  A
C874        C879   1.510       .  S
C875        C876   1.424       .  A
C875        C880   1.454       .  S
C876        C877   1.449       .  A
C876        C892   1.446       .  S
C877        C878   1.453       .  A
C878        C881   1.453       .  S
C879        C882   1.413       .  A
C879        C886   1.407       .  A
C880        N897   1.157       .  T
C881        N899   1.158       .  T
C882        C883   1.419       .  A
C882        C887   1.449       .  S
C883        C884   1.421       .  A
C883        C889   1.451       .  S
C884        C885   1.427       .  A
C885        C886   1.413       .  A
C885        C888   1.450       .  S
C886        C890   1.453       .  S
C887        N894   1.157       .  T
C888        N895   1.156       .  T
C889        N893   1.158       .  T
C890        N896   1.157       .  T
C891        N900   1.157       .  T
C892        N898   1.158   1_545  T
C901        C902   1.416       .  A
C901        C906   1.421       .  A
C901        C919   1.449       .  S
C902        C903   1.409       .  A
C902        C907   1.512       .  S
C903        C904   1.412       .  A
C903        C908   1.451       .  S
C904        C905   1.424       .  A
C904        C920   1.453       .  S
C905        C906   1.415       .  A
C906        C909   1.449       .  S
C907        C910   1.404       .  A
C907        C914   1.399       .  A
C908        N925   1.157       .  T
C909        N927   1.157       .  T
C910        C911   1.425       .  A
C910        C915   1.452       .  S
C911        C912   1.446       .  A
C911        C917   1.450       .  S
C912        C913   1.454       .  A
C913        C914   1.416       .  A
C913        C916   1.450       .  S
C914        C918   1.456       .  S
C915        N922   1.157       .  T
C916        N923   1.157       .  T
C917        N921   1.157       .  T
C918        N924   1.157       .  T
C919        N928   1.157       .  T
C920        N926   1.157       .  T
C929        C930   1.415       .  A
C929        C934   1.417       .  A
C929        C947   1.448       .  S
C930        C931   1.412       .  A
C930        C935   1.506       .  S
C931        C932   1.409       .  A
C931        C936   1.456       .  S
C932        C933   1.416       .  A
C932        C948   1.446       .  S
C933        C934   1.411       .  A
C934        C937   1.448       .  S
C935        C938   1.414       .  A
C935        C942   1.412       .  A
C936        N953   1.158       .  T
C937        N955   1.157       .  T
C938        C939   1.414       .  A
C938        C943   1.449       .  S
C939        C940   1.414       .  A
C939        C945   1.450       .  S
C940        C941   1.416       .  A
C941        C942   1.410       .  A
C941        C944   1.449       .  S
C942        C946   1.452       .  S
C943        N950   1.157       .  T
C944        N951   1.156       .  T
C945        N949   1.157       .  T
C946        N952   1.157       .  T
C947        N956   1.157       .  T
C948        N954   1.156       .  T
C957        C958   1.416       .  A
C957        C962   1.412       .  A
C957        C975   1.452       .  S
C958        C959   1.414       .  A
C958        C963   1.498       .  S
C959        C960   1.405       .  A
C959        C964   1.452       .  S
C960        C961   1.411       .  A
C960        C976   1.448       .  S
C961        C962   1.413       .  A
C962        C965   1.450       .  S
C963        C966   1.417       .  A
C963        C970   1.415       .  A
C964        N981   1.157       .  T
C965        N983   1.157       .  T
C966        C967   1.408       .  A
C966        C971   1.451       .  S
C967        C968   1.406       .  A
C967        C973   1.450       .  S
C968        C969   1.407       .  A
C969        C970   1.403       .  A
C969        C972   1.453       .  S
C970        C974   1.450       .  S
C971        N978   1.157       .  T
C972        N979   1.157       .  T
C973        N977   1.157       .  T
C974        N980   1.157       .  T
C975        N984   1.158       .  T
C976        N982   1.156       .  T
C985        C986   1.417       .  A
C985        C990   1.414       .  A
C985       C1003   1.451       .  S
C986        C987   1.418       .  A
C986        C991   1.514       .  S
C987        C988   1.414       .  A
C987        C992   1.451       .  S
C988        C989   1.414       .  A
C988       C1004   1.451       .  S
C989        C990   1.413       .  A
C990        C993   1.449       .  S
C991        C994   1.414       .  A
C991        C998   1.419       .  A
C992       N1009   1.157       .  T
C993       N1011   1.157       .  T
C994        C995   1.409       .  A
C994        C999   1.451       .  S
C995        C996   1.415       .  A
C995       C1001   1.448       .  S
C996        C997   1.414       .  A
C997        C998   1.419       .  A
C997       C1000   1.449       .  S
C998       C1002   1.450       .  S
C999       N1006   1.157       .  T
C1000      N1007   1.157       .  T
C1001      N1005   1.156       .  T
C1002      N1008   1.157       .  T
C1003      N1012   1.157       .  T
C1004      N1010   1.157       .  T
C1013      C1014   1.412       .  A
C1013      C1018   1.410       .  A
C1013      C1031   1.451       .  S
C1014      C1015   1.410       .  A
C1014      C1019   1.493       .  S
C1015      C1016   1.406       .  A
C1015      C1020   1.451       .  S
C1016      C1017   1.412       .  A
C1016      C1032   1.448       .  S
C1017      C1018   1.413       .  A
C1018      C1021   1.450       .  S
C1019      C1022   1.410       .  A
C1019      C1026   1.407       .  A
C1020      N1037   1.157       .  T
C1021      N1039   1.157       .  T
C1022      C1023   1.412       .  A
C1022      C1027   1.451       .  S
C1023      C1024   1.418       .  A
C1023      C1029   1.451       .  S
C1024      C1025   1.420       .  A
C1025      C1026   1.405       .  A
C1025      C1028   1.449       .  S
C1026      C1030   1.453       .  S
C1027      N1034   1.157       .  T
C1028      N1035   1.156       .  T
C1029      N1033   1.157       .  T
C1030      N1036   1.157       .  T
C1031      N1040   1.157       .  T
C1032      N1038   1.156       .  T
C1041      C1042   1.408       .  A
C1041      C1046   1.426       .  A
C1041      C1059   1.452       .  S
C1042      C1043   1.402   1_545  A
C1042      C1047   1.518   1_545  S
C1043      C1044   1.418       .  A
C1043      C1048   1.455       .  S
C1044      C1045   1.449   1_565  A
C1044      C1060   1.449       .  S
C1045      C1046   1.442       .  A
C1046      C1049   1.449       .  S
C1047      C1050   1.411       .  A
C1047      C1054   1.415   1_565  A
C1048      N1065   1.157       .  T
C1049      N1067   1.157       .  T
C1050      C1051   1.416       .  A
C1050      C1055   1.451       .  S
C1051      C1052   1.424       .  A
C1051      C1057   1.452       .  S
C1052      C1053   1.416   1_565  A
C1053      C1054   1.421       .  A
C1053      C1056   1.445       .  S
C1054      C1058   1.450       .  S
C1055      N1062   1.157       .  T
C1056      N1063   1.156       .  T
C1057      N1061   1.158       .  T
C1058      N1064   1.157       .  T
C1059      N1068   1.157       .  T
C1060      N1066   1.157       .  T
C1069      C1070   1.415   1_565  A
C1069      C1074   1.422       .  A
C1069      C1087   1.451       .  S
C1070      C1071   1.419       .  A
C1070      C1075   1.534       .  S
C1071      C1072   1.425       .  A
C1071      C1076   1.451       .  S
C1072      C1073   1.425       .  A
C1072      C1088   1.449       .  S
C1073      C1074   1.429   1_545  A
C1074      C1077   1.451       .  S
C1075      C1078   1.406       .  A
C1075      C1082   1.411   1_545  A
C1076      N1093   1.157       .  T
C1077      N1095   1.157       .  T
C1078      C1079   1.419       .  A
C1078      C1083   1.453       .  S
C1079      C1080   1.445       .  A
C1079      C1085   1.441       .  S
C1080      C1081   1.451   1_545  A
C1081      C1082   1.433       .  A
C1081      C1084   1.446       .  S
C1082      C1086   1.453       .  S
C1083      N1090   1.157       .  T
C1084      N1091   1.157       .  T
C1085      N1089   1.155       .  T
C1086      N1092   1.157       .  T
C1087      N1096   1.157       .  T
C1088      N1094   1.158       .  T
C1097      C1098   1.412       .  A
C1097      C1102   1.417       .  A
C1097      C1115   1.451       .  S
C1098      C1099   1.411       .  A
C1098      C1103   1.517       .  S
C1099      C1100   1.420       .  A
C1099      C1104   1.451       .  S
C1100      C1101   1.427       .  A
C1100      C1116   1.450       .  S
C1101      C1102   1.426       .  A
C1102      C1105   1.451       .  S
C1103      C1106   1.405       .  A
C1103      C1110   1.400       .  A
C1104      N1121   1.157       .  T
C1105      N1123   1.157       .  T
C1106      C1107   1.426       .  A
C1106      C1111   1.453       .  S
C1107      C1108   1.448       .  A
C1107      C1113   1.449       .  S
C1108      C1109   1.452       .  A
C1109      C1110   1.422       .  A
C1109      C1112   1.448       .  S
C1110      C1114   1.456       .  S
C1111      N1118   1.157       .  T
C1112      N1119   1.157       .  T
C1113      N1117   1.157       .  T
C1114      N1120   1.157       .  T
C1115      N1124   1.157       .  T
C1116      N1122   1.157       .  T
C1125      C1126   1.403       .  A
C1125      C1130   1.424       .  A
C1125      C1143   1.455       .  S
C1126      C1127   1.408       .  A
C1126      C1131   1.522       .  S
C1127      C1128   1.424       .  A
C1127      C1132   1.454       .  S
C1128      C1129   1.445       .  A
C1128      C1144   1.445       .  S
C1129      C1130   1.450       .  A
C1130      C1133   1.447       .  S
C1131      C1134   1.419       .  A
C1131      C1138   1.416       .  A
C1132      N1149   1.157       .  T
C1133      N1151   1.157   1_565  T
C1134      C1135   1.419       .  A
C1134      C1139   1.450       .  S
C1135      C1136   1.417       .  A
C1135      C1141   1.451       .  S
C1136      C1137   1.416       .  A
C1137      C1138   1.417       .  A
C1137      C1140   1.451       .  S
C1138      C1142   1.450       .  S
C1139      N1146   1.157       .  T
C1140      N1147   1.157       .  T
C1141      N1145   1.157       .  T
C1142      N1148   1.157       .  T
C1143      N1152   1.157       .  T
C1144      N1150   1.157       .  T
