geometry optimzed in LAMMPS
_audit_creation_date              2020-11-30 
_audit_creation_method            'lammps2cif' 
_symmetry_space_group_name_H-M    'P1' 
_symmetry_Int_Tables_number       1 
_symmetry_cell_setting            triclinic 
loop_ 
_symmetry_equiv_pos_as_xyz 
  x,y,z 
_cell_length_a                    64.78427096198324 
_cell_length_b                    64.3852701168557 
_cell_length_c                    64.83955712462416 
_cell_angle_alpha                 90.0266322747969 
_cell_angle_beta                  90.01500633286412 
_cell_angle_gamma                 90.00627696724793 
loop_ 
_atom_site_label 
_atom_site_type_symbol 
_atom_site_fract_x 
_atom_site_fract_y 
_atom_site_fract_z 
_atom_site_charge 
N1          N  0.50094949  0.79846852  0.64147968    -0.25340
N2          N  0.50056918  0.81850452  0.63714123    -0.33190
C3          C  0.50077464  0.82097453  0.61657996     0.03010
C4          C  0.50130718  0.80151783  0.60773395     0.09030
C5          C  0.50140487  0.78754801  0.62381610    -0.04070
H6          H  0.50056122  0.83579628  0.60872261     0.09700
H7          H  0.50177727  0.77077726  0.62281836     0.10900
Cu8        Cu  0.49986334  0.84121934  0.65953759     0.44170
Cu9        Cu  0.50081202  0.78742116  0.67124048     0.41990
Cu10       Cu  0.49961304  0.82535679  0.71335593     0.43880
N11         N  0.49953061  0.86168775  0.68399262    -0.32720
N12         N  0.49946637  0.85625548  0.70367571    -0.26980
C13         C  0.49943663  0.87362869  0.71531242    -0.03080
C14         C  0.49948377  0.89054580  0.70217251     0.09140
C15         C  0.49954081  0.88247501  0.68253376     0.02940
H16         H  0.49945682  0.87389021  0.73199658     0.10590
H17         H  0.49966968  0.89104907  0.66818376     0.09670
N18         N  0.49996344  0.79320965  0.71743395    -0.34170
N19         N  0.50042507  0.77973021  0.70203817    -0.26350
C20         C  0.50054947  0.76035303  0.70964522    -0.01590
C21         C  0.50014316  0.76153522  0.73084551     0.07020
C22         C  0.49977845  0.78262653  0.73533990     0.05110
H23         H  0.50089600  0.74639077  0.70035945     0.10220
H24         H  0.49940628  0.78983031  0.75040299     0.09050
N25         N  0.50092375  0.63333847  0.80785383    -0.25340
N26         N  0.50073861  0.62819763  0.82761256    -0.33190
C27         C  0.50121522  0.60744311  0.82939542     0.03010
C28         C  0.50173473  0.59907902  0.80988849     0.09030
C29         C  0.50153094  0.61579285  0.79648988    -0.04070
H30         H  0.50123348  0.59909435  0.84387671     0.09700
H31         H  0.50184324  0.61527701  0.77981475     0.10900
Cu32       Cu  0.50001993  0.64899807  0.85174469     0.44170
Cu33       Cu  0.50044885  0.66410904  0.79772683     0.41990
Cu34       Cu  0.49922534  0.70256090  0.83950388     0.43880
N35         N  0.49947312  0.67190326  0.87390724    -0.32720
N36         N  0.49917638  0.69189900  0.86939865    -0.26980
C37         C  0.49886836  0.70297145  0.88697682    -0.03080
C38         C  0.49897867  0.68911906  0.90316648     0.09140
C39         C  0.49936513  0.66959857  0.89447845     0.02940
H40         H  0.49858149  0.71975143  0.88784361     0.10590
H41         H  0.49954787  0.65483913  0.90245123     0.09670
N42         N  0.49947937  0.70984495  0.80861144    -0.34170
N43         N  0.49993897  0.69623124  0.79332817    -0.26350
C44         C  0.50005389  0.70667392  0.77532917    -0.01590
C45         C  0.49964553  0.72779867  0.77966508     0.07020
C46         C  0.49928520  0.72914960  0.80084822     0.05110
H47         H  0.50042988  0.69936568  0.76031479     0.10220
H48         H  0.49894215  0.74318616  0.81002335     0.09050
N49         N  0.86514985  0.69470693  0.50775121    -0.25340
N50         N  0.87040859  0.67484689  0.50818745    -0.33190
C51         C  0.89104693  0.67312747  0.50795100     0.03010
C52         C  0.89932962  0.69276766  0.50733620     0.09030
C53         C  0.88259727  0.70620845  0.50722302    -0.04070
H54         H  0.89938827  0.65856855  0.50819071     0.09700
H55         H  0.88305292  0.72299878  0.50678141     0.10900
Cu56       Cu  0.85001980  0.65035274  0.50897010     0.44170
Cu57       Cu  0.83418878  0.70449804  0.50788061     0.41990
Cu58       Cu  0.79666007  0.66137446  0.50914237     0.43880
N59         N  0.82792660  0.62740499  0.50928398    -0.32720
N60         N  0.80793546  0.63139298  0.50932945    -0.26980
C61         C  0.79746019  0.61334868  0.50928007    -0.03080
C62         C  0.81171051  0.59742231  0.50920090     0.09140
C63         C  0.83083280  0.60676322  0.50920577     0.02940
H64         H  0.78081435  0.61197997  0.50919139     0.10590
H65         H  0.84573796  0.59918206  0.50904021     0.09670
N66         N  0.78877528  0.69244911  0.50863616    -0.34170
N67         N  0.80193040  0.70818369  0.50816545    -0.26350
C68         C  0.79102083  0.72604495  0.50788550    -0.01590
C69         C  0.77009658  0.72116619  0.50819237     0.07020
C70         C  0.76937776  0.69978905  0.50866401     0.05110
H71         H  0.79786208  0.74135920  0.50746663     0.10220
H72         H  0.75567801  0.69017980  0.50898400     0.09050
N73         N  0.63991400  0.79620663  0.50693702    -0.25340
N74         N  0.63475179  0.81609608  0.50690519    -0.33190
C75         C  0.61412205  0.81791737  0.50663482     0.03010
C76         C  0.60573080  0.79831267  0.50648523     0.09030
C77         C  0.62240231  0.78478599  0.50668516    -0.04070
H78         H  0.60585944  0.83252304  0.50649267     0.09700
H79         H  0.62186074  0.76799251  0.50660185     0.10900
Cu80       Cu  0.65526632  0.84048978  0.50699087     0.44170
Cu81       Cu  0.67086396  0.78631989  0.50718998     0.41990
Cu82       Cu  0.70857352  0.82942024  0.50690148     0.43880
N83         N  0.67736803  0.86341699  0.50657185    -0.32720
N84         N  0.69735718  0.85942480  0.50650950    -0.26980
C85         C  0.70783078  0.87746526  0.50599771    -0.03080
C86         C  0.69357346  0.89338783  0.50572133     0.09140
C87         C  0.67445731  0.88404986  0.50610108     0.02940
H88         H  0.72447528  0.87883277  0.50576087     0.10590
H89         H  0.65954949  0.89162589  0.50595307     0.09670
N90         N  0.71632931  0.79830713  0.50721148    -0.34170
N91         N  0.70313700  0.78259350  0.50733301    -0.26350
C92         C  0.71401565  0.76470813  0.50752262    -0.01590
C93         C  0.73495086  0.76955212  0.50751221     0.07020
C94         C  0.73571094  0.79092954  0.50730976     0.05110
H95         H  0.70714820  0.74940004  0.50764005     0.10220
H96         H  0.74943061  0.80051556  0.50723786     0.09050
N97         N  0.86411625  0.49573792  0.70740169    -0.25340
N98         N  0.86966331  0.49586869  0.68775418    -0.33190
C99         C  0.89033700  0.49582433  0.68644915     0.03010
C100        C  0.89822234  0.49565958  0.70614431     0.09030
C101        C  0.88130534  0.49560782  0.71915940    -0.04070
H102        H  0.89896453  0.49585900  0.67216011     0.09700
H103        H  0.88144442  0.49544223  0.73584374     0.10900
Cu104      Cu  0.84952756  0.49594069  0.66309130     0.44170
Cu105      Cu  0.83330664  0.49561613  0.71690355     0.41990
Cu106      Cu  0.79602403  0.49528270  0.67435511     0.43880
N107        N  0.82715738  0.49565707  0.64044180    -0.32720
N108        N  0.80720447  0.49539337  0.64460810    -0.26980
C109        C  0.79651033  0.49508338  0.62683327    -0.03080
C110        C  0.81053726  0.49515524  0.61085169     0.09140
C111        C  0.82979416  0.49552183  0.61989446     0.02940
H112        H  0.77985137  0.49475053  0.62568852     0.10590
H113        H  0.84459948  0.49559683  0.61217331     0.09670
N114        N  0.78806215  0.49520670  0.70513236    -0.34170
N115        N  0.80127502  0.49535572  0.72069503    -0.26350
C116        C  0.79052496  0.49529744  0.73848664    -0.01590
C117        C  0.76960918  0.49509913  0.73374087     0.07020
C118        C  0.76871374  0.49504115  0.71251703     0.05110
H119        H  0.79748411  0.49539522  0.75364673     0.10220
H120        H  0.75495146  0.49491129  0.70305898     0.09050
N121        N  0.64043906  0.49471888  0.80784529    -0.25340
N122        N  0.63477680  0.49464209  0.82745775    -0.33190
C123        C  0.61409183  0.49473194  0.82864149     0.03010
C124        C  0.60631178  0.49487170  0.80889653     0.09030
C125        C  0.62331614  0.49485869  0.79598543    -0.04070
H126        H  0.60538320  0.49474148  0.84288128     0.09700
H127        H  0.62327824  0.49498330  0.77930045     0.10900
Cu128      Cu  0.65483223  0.49458782  0.85219519     0.44170
Cu129      Cu  0.67133553  0.49475799  0.79858701     0.41990
Cu130      Cu  0.70849458  0.49521942  0.84132932     0.43880
N131        N  0.67706203  0.49491721  0.87498692    -0.32720
N132        N  0.69705174  0.49517967  0.87098959    -0.26980
C133        C  0.70758841  0.49550967  0.88886056    -0.03080
C134        C  0.69341817  0.49545208  0.90472031     0.09140
C135        C  0.67424657  0.49507274  0.89550917     0.02940
H136        H  0.72423706  0.49583309  0.89015310     0.10590
H137        H  0.65937432  0.49499242  0.90310033     0.09670
N138        N  0.71656456  0.49516154  0.81056850    -0.34170
N139        N  0.70339794  0.49496521  0.79496462    -0.26350
C140        C  0.71420143  0.49495079  0.77720794    -0.01590
C141        C  0.73510411  0.49515066  0.78200867     0.07020
C142        C  0.73593812  0.49528382  0.80323719     0.05110
H143        H  0.70728180  0.49481112  0.76203050     0.10220
H144        H  0.74967392  0.49544682  0.81273318     0.09050
N145        N  0.79952166  0.85594059  0.00490956    -0.25340
N146        N  0.81916187  0.86157214  0.00479308    -0.33190
C147        C  0.82039415  0.88236421  0.00503501     0.03010
C148        C  0.80063466  0.89015037  0.00532136     0.09030
C149        C  0.78767396  0.87313048  0.00523354    -0.04070
H150        H  0.83465357  0.89111990  0.00510449     0.09700
H151        H  0.77097542  0.87318531  0.00548240     0.10900
Cu152      Cu  0.84375118  0.84130144  0.00462695     0.44170
Cu153      Cu  0.79008731  0.82513347  0.00487105     0.41990
Cu154      Cu  0.83219440  0.78736969  0.00523894     0.43880
N155        N  0.86614509  0.81861172  0.00488110    -0.32720
N156        N  0.86185467  0.79856040  0.00513208    -0.26980
C157        C  0.87954210  0.78767987  0.00531877    -0.03080
C158        C  0.89558019  0.80170039  0.00518009     0.09140
C159        C  0.88670896  0.82113593  0.00490472     0.02940
H160        H  0.88057816  0.77090909  0.00555352     0.10590
H161        H  0.89454629  0.83597705  0.00475696     0.09670
N162        N  0.80145058  0.77965311  0.00520217    -0.34170
N163        N  0.78606508  0.79314218  0.00504079    -0.26350
C164        C  0.76812958  0.78263584  0.00503588    -0.01590
C165        C  0.77260425  0.76156926  0.00520329     0.07020
C166        C  0.79380824  0.76029894  0.00530761     0.05110
H167        H  0.75307756  0.78988951  0.00492506     0.10220
H168        H  0.80306423  0.74631260  0.00544008     0.09050
N169        N  0.69659636  0.63388221  0.00593086    -0.25340
N170        N  0.67695028  0.62826361  0.00580408    -0.33190
C171        C  0.67571352  0.60747048  0.00610063     0.03010
C172        C  0.69547306  0.59967946  0.00643270     0.09030
C173        C  0.70843655  0.61669120  0.00631385    -0.04070
H174        H  0.66145296  0.59871657  0.00610638     0.09700
H175        H  0.72513590  0.61663082  0.00651603     0.10900
Cu176      Cu  0.65235251  0.64854808  0.00535221     0.44170
Cu177      Cu  0.70611330  0.66465398  0.00564362     0.41990
Cu178      Cu  0.66412863  0.70243870  0.00489980     0.43880
N179        N  0.63003674  0.67134144  0.00511675    -0.32720
N180        N  0.63442822  0.69137202  0.00495365    -0.26980
C181        C  0.61680137  0.70235056  0.00494595    -0.03080
C182        C  0.60068693  0.68842345  0.00511301     0.09140
C183        C  0.60945554  0.66893307  0.00521770     0.02940
H184        H  0.61585812  0.71912848  0.00487728     0.10590
H185        H  0.60153698  0.65413622  0.00540757     0.09670
N186        N  0.69487201  0.71013081  0.00503456    -0.34170
N187        N  0.71023644  0.69662245  0.00531339    -0.26350
C188        C  0.72818824  0.70710259  0.00535845    -0.01590
C189        C  0.72374021  0.72817412  0.00509560     0.07020
C190        C  0.70253912  0.72947283  0.00489511     0.05110
H191        H  0.74323087  0.69983120  0.00557653     0.10220
H192        H  0.69330187  0.74347056  0.00467681     0.09050
N193        N  0.80128206  0.99491365  0.87009511    -0.25340
N194        N  0.82122642  0.99477418  0.87438270    -0.33190
C195        C  0.82374852  0.99448759  0.89496021     0.03010
C196        C  0.80445714  0.99444035  0.90395188     0.09030
C197        C  0.79051294  0.99471705  0.88785124    -0.04070
H198        H  0.83851897  0.99426837  0.90275142     0.09700
H199        H  0.77384587  0.99471297  0.88891362     0.10900
Cu200      Cu  0.84391282  0.99481920  0.85192515     0.44170
Cu201      Cu  0.79016550  0.99518327  0.84015978     0.41990
Cu202      Cu  0.82811785  0.99487828  0.79814056     0.43880
N203        N  0.86437988  0.99480759  0.82742296    -0.32720
N204        N  0.85890636  0.99482215  0.80775278    -0.26980
C205        C  0.87612806  0.99485377  0.79604655    -0.03080
C206        C  0.89303748  0.99485868  0.80908823     0.09140
C207        C  0.88507398  0.99482777  0.82878117     0.02940
H208        H  0.87629770  0.99489992  0.77936172     0.10590
H209        H  0.89366666  0.99484710  0.84309481     0.09670
N210        N  0.79614565  0.99505141  0.79381837    -0.34170
N211        N  0.78263064  0.99519022  0.80912063    -0.26350
C212        C  0.76342842  0.99527198  0.80128698    -0.01590
C213        C  0.76475975  0.99517695  0.78005274     0.07020
C214        C  0.78577297  0.99503916  0.77579517     0.05110
H215        H  0.74946334  0.99537161  0.81043591     0.10220
H216        H  0.79306143  0.99492890  0.76079439     0.09050
N217        N  0.69493256  0.99519296  0.64077128    -0.25340
N218        N  0.67500843  0.99528873  0.63638311    -0.33190
C219        C  0.67260900  0.99556445  0.61578409     0.03010
C220        C  0.69196142  0.99564994  0.60690179     0.09030
C221        C  0.70580278  0.99540724  0.62308175    -0.04070
H222        H  0.65788518  0.99574543  0.60790430     0.09700
H223        H  0.72247587  0.99544397  0.62211896     0.10900
Cu224      Cu  0.65221473  0.99517702  0.65877980     0.44170
Cu225      Cu  0.70596526  0.99495344  0.67072004     0.41990
Cu226      Cu  0.66806584  0.99515125  0.71263892     0.43880
N227        N  0.63177652  0.99504991  0.68334866    -0.32720
N228        N  0.63728600  0.99504404  0.70301186    -0.26980
C229        C  0.62009233  0.99487970  0.71475576    -0.03080
C230        C  0.60315383  0.99477662  0.70175852     0.09140
C231        C  0.61107483  0.99489189  0.68204270     0.02940
H232        H  0.61996259  0.99480559  0.73144094     0.10590
H233        H  0.60244704  0.99483125  0.66775037     0.09670
N234        N  0.70002405  0.99509009  0.71702913    -0.34170
N235        N  0.71354052  0.99498357  0.70173221    -0.26350
C236        C  0.73274257  0.99494879  0.70956350    -0.01590
C237        C  0.73140848  0.99504126  0.73079729     0.07020
C238        C  0.71039332  0.99512891  0.73505408     0.05110
H239        H  0.74670757  0.99487378  0.70041414     0.10220
H240        H  0.70310288  0.99521076  0.75005399     0.09050
N241        N  0.99718773  0.85716547  0.80742083    -0.25340
N242        N  0.99712132  0.86250241  0.82713880    -0.33190
C243        C  0.99696447  0.88328782  0.82872529     0.03010
C244        C  0.99692587  0.89148270  0.80913986     0.09030
C245        C  0.99707190  0.87461663  0.79589890    -0.04070
H246        H  0.99684064  0.89177972  0.84313108     0.09700
H247        H  0.99705078  0.87497005  0.77921702     0.10900
Cu248      Cu  0.99711704  0.84192527  0.85151160     0.44170
Cu249      Cu  0.99731376  0.82625048  0.79753324     0.41990
Cu250      Cu  0.99675501  0.78826596  0.83960883     0.43880
N251        N  0.99705065  0.81912988  0.87383508    -0.32720
N252        N  0.99689600  0.79911190  0.86939858    -0.26980
C253        C  0.99699224  0.78809407  0.88699399    -0.03080
C254        C  0.99721543  0.80199074  0.90314249     0.09140
C255        C  0.99724475  0.82149706  0.89440798     0.02940
H256        H  0.99696024  0.77131397  0.88789664     0.10590
H257        H  0.99744412  0.83628051  0.90234910     0.09670
N258        N  0.99704057  0.78060524  0.80884818    -0.34170
N259        N  0.99728757  0.79403438  0.79341482    -0.26350
C260        C  0.99755542  0.78334541  0.77554527    -0.01590
C261        C  0.99747241  0.76226360  0.78014184     0.07020
C262        C  0.99714176  0.76119683  0.80133225     0.05110
H263        H  0.99782842  0.79045517  0.76044206     0.10220
H264        H  0.99703700  0.74728342  0.81068507     0.09050
N265        N  0.00068902  0.63311707  0.70424282    -0.25340
N266        N  0.00127365  0.62760273  0.68456961    -0.33190
C267        C  0.00165451  0.60677394  0.68325049     0.03010
C268        C  0.00129815  0.59877707  0.70295036     0.09030
C269        C  0.00068191  0.61579977  0.71595774    -0.04070
H270        H  0.00211303  0.59810865  0.66895466     0.09700
H271        H  0.00022252  0.61564425  0.73263667     0.10900
Cu272      Cu  0.00148628  0.64809235  0.65990069     0.44170
Cu273      Cu  0.99988077  0.66401783  0.71410071     0.41990
Cu274      Cu  0.00023051  0.70179984  0.67231819     0.43880
N275        N  0.00166440  0.67127335  0.63772296    -0.32720
N276        N  0.00120020  0.69122139  0.64247212    -0.26980
C277        C  0.00146636  0.70256543  0.62508929    -0.03080
C278        C  0.00213699  0.68902063  0.60867868     0.09140
C279        C  0.00223919  0.66932111  0.61708244     0.02940
H280        H  0.00117293  0.71935759  0.62450697     0.10590
H281        H  0.00267916  0.65469816  0.60886422     0.09670
N282        N  0.99940430  0.70961036  0.70300423    -0.34170
N283        N  0.99926837  0.69617979  0.71842520    -0.26350
C284        C  0.99876792  0.70685245  0.73629953    -0.01590
C285        C  0.99858958  0.72793754  0.73170521     0.07020
C286        C  0.99900192  0.72901543  0.71051479     0.05110
H287        H  0.99859464  0.69973484  0.75140065     0.10220
H288        H  0.99904804  0.74293044  0.70116382     0.09050
N289        N  0.50024327  0.19073009  0.64194294    -0.25340
N290        N  0.50010113  0.17072458  0.63745932    -0.33190
C291        C  0.50042569  0.16835494  0.61689559     0.03010
C292        C  0.50077257  0.18783918  0.60814421     0.09030
C293        C  0.50063937  0.20175058  0.62432606    -0.04070
H294        H  0.50045310  0.15356513  0.60896414     0.09700
H295        H  0.50089783  0.21852847  0.62342354     0.10900
Cu296      Cu  0.49961650  0.14787599  0.65965997     0.44170
Cu297      Cu  0.50027136  0.20131065  0.67193861     0.41990
Cu298      Cu  0.49796549  0.16310763  0.71388645     0.43880
N299        N  0.49926966  0.12709756  0.68380239    -0.32720
N300        N  0.49863227  0.13222201  0.70357091    -0.26980
C301        C  0.49871136  0.11461952  0.71487402    -0.03080
C302        C  0.49941185  0.09790840  0.70144609     0.09140
C303        C  0.49974620  0.10633509  0.68196919     0.02940
H304        H  0.49831339  0.11405341  0.73154412     0.10590
H305        H  0.50030762  0.09802218  0.66746962     0.09670
N306        N  0.49933737  0.19538882  0.71827964    -0.34170
N307        N  0.50083664  0.20875239  0.70284558    -0.26350
C308        C  0.50259124  0.22808304  0.71036396    -0.01590
C309        C  0.50183886  0.22714185  0.73153502     0.07020
C310        C  0.49977454  0.20613934  0.73616150     0.05110
H311        H  0.50405995  0.24191394  0.70100135     0.10220
H312        H  0.49902454  0.19916154  0.75131316     0.09050
N313        N  0.50144451  0.35726643  0.80840445    -0.25340
N314        N  0.50064114  0.36207038  0.82824977    -0.33190
C315        C  0.50068630  0.38281101  0.83042231     0.03010
C316        C  0.50154877  0.39155224  0.81109407     0.09030
C317        C  0.50200238  0.37505211  0.79740441    -0.04070
H318        H  0.50024620  0.39089398  0.84505352     0.09700
H319        H  0.50277282  0.37588439  0.78075856     0.10900
Cu320      Cu  0.49981564  0.34089768  0.85207474     0.44170
Cu321      Cu  0.50176881  0.32657316  0.79749529     0.41990
Cu322      Cu  0.49940699  0.28775564  0.83879796     0.43880
N323        N  0.49961540  0.31761661  0.87386846    -0.32720
N324        N  0.49960337  0.29770607  0.86898702    -0.26980
C325        C  0.49962977  0.28631640  0.88637501    -0.03080
C326        C  0.49964156  0.29988352  0.90283994     0.09140
C327        C  0.49963041  0.31955302  0.89448220     0.02940
H328        H  0.49964110  0.26952113  0.88693318     0.10590
H329        H  0.49968473  0.33417384  0.90271666     0.09670
N330        N  0.49873921  0.28080772  0.80779873    -0.34170
N331        N  0.50024723  0.29437419  0.79254299    -0.26350
C332        C  0.49973470  0.28385827  0.77451503    -0.01590
C333        C  0.49760210  0.26280462  0.77888708     0.07020
C334        C  0.49690262  0.26159281  0.80003887     0.05110
H335        H  0.50048636  0.29101949  0.75944780     0.10220
H336        H  0.49541513  0.24764634  0.80922851     0.09050
O337        O  0.53091710  0.99433527  0.72646699    -0.70990
O338        O  0.46851977  0.99426850  0.72510023    -0.71970
O339        O  0.49969621  0.96305751  0.72623115    -0.60590
O340        O  0.49966939  0.02555527  0.72563443    -0.69000
O341        O  0.50038155  0.02515928  0.69136629    -0.68550
O342        O  0.50040627  0.96281944  0.69195817    -0.59810
O343        O  0.46950897  0.99394503  0.69084113    -0.72310
O344        O  0.53134330  0.99400771  0.69219981    -0.71090
Cu345      Cu  0.49967980  0.99431304  0.72709074     1.04560
Cu346      Cu  0.50044268  0.99396625  0.69041095     1.04330
C347        C  0.54084707  0.99420398  0.70943464     0.95210
C348        C  0.45931058  0.99410297  0.70766436     0.94350
C349        C  0.50000821  0.95318777  0.70915916     0.86490
C350        C  0.49998875  0.03511723  0.70839573     0.92770
N351        N  0.99730136  0.13334427  0.80808765    -0.25340
N352        N  0.99730169  0.12799697  0.82779674    -0.33190
C353        C  0.99713296  0.10720497  0.82935266     0.03010
C354        C  0.99701746  0.09901026  0.80975358     0.09030
C355        C  0.99713106  0.11589397  0.79653987    -0.04070
H356        H  0.99702908  0.09870632  0.84374697     0.09700
H357        H  0.99703137  0.11555066  0.77985759     0.10900
Cu358      Cu  0.99730322  0.14863637  0.85216667     0.44170
Cu359      Cu  0.99735447  0.16430910  0.79830535     0.41990
Cu360      Cu  0.99657708  0.20252623  0.84046732     0.43880
N361        N  0.99695414  0.17132023  0.87466650    -0.32720
N362        N  0.99664610  0.19138906  0.87043485    -0.26980
C363        C  0.99640967  0.20216511  0.88823561    -0.03080
C364        C  0.99657558  0.18807151  0.90428271     0.09140
C365        C  0.99692028  0.16870127  0.89522503     0.02940
H366        H  0.99612390  0.21892847  0.88936711     0.10590
H367        H  0.99710455  0.15381134  0.90295443     0.09670
N368        N  0.99687882  0.21009864  0.80940886    -0.34170
N369        N  0.99721332  0.19653559  0.79406267    -0.26350
C370        C  0.99747974  0.20703874  0.77607438    -0.01590
C371        C  0.99730242  0.22817930  0.78040171     0.07020
C372        C  0.99691438  0.22944243  0.80163914     0.05110
H373        H  0.99781639  0.19975755  0.76104584     0.10220
H374        H  0.99673555  0.24346474  0.81083909     0.09050
N375        N  0.00025215  0.35689231  0.70378382    -0.25340
N376        N  0.00079422  0.36244805  0.68413260    -0.33190
C377        C  0.00116518  0.38327897  0.68285665     0.03010
C378        C  0.00084529  0.39125128  0.70257485     0.09030
C379        C  0.00026302  0.37419642  0.71554435    -0.04070
H380        H  0.00161069  0.39196196  0.66857852     0.09700
H381        H  0.99985787  0.37432518  0.73222488     0.10900
Cu382      Cu  0.00100840  0.34192627  0.65950405     0.44170
Cu383      Cu  0.99953280  0.32588898  0.71338704     0.41990
Cu384      Cu  0.00019204  0.28786901  0.67133151     0.43880
N385        N  0.00126134  0.31904054  0.63703116    -0.32720
N386        N  0.00097591  0.29898771  0.64137290    -0.26980
C387        C  0.00125743  0.28808087  0.62365122    -0.03080
C388        C  0.00174769  0.30203276  0.60749691     0.09140
C389        C  0.00173116  0.32148843  0.61643772     0.02940
H390        H  0.00110069  0.27130737  0.62264570     0.10590
H391        H  0.00202769  0.33631716  0.60859784     0.09670
N392        N  0.99936039  0.28014346  0.70233280    -0.34170
N393        N  0.99908950  0.29368808  0.71768878    -0.26350
C394        C  0.99857431  0.28317452  0.73566435    -0.01590
C395        C  0.99852633  0.26203651  0.73131478     0.07020
C396        C  0.99903370  0.26079055  0.71007599     0.05110
H397        H  0.99829543  0.29044603  0.75069867     0.10220
H398        H  0.99917652  0.24677715  0.70086208     0.09050
N399        N  0.13323813  0.99527401  0.80848924    -0.25340
N400        N  0.12875857  0.99510603  0.82836846    -0.33190
C401        C  0.10813252  0.99506688  0.83069158     0.03010
C402        C  0.09928457  0.99521678  0.81133176     0.09030
C403        C  0.11555077  0.99534594  0.79755703    -0.04070
H404        H  0.10020455  0.99493968  0.84537706     0.09700
H405        H  0.11464012  0.99547765  0.78089550     0.10900
Cu406      Cu  0.15113398  0.99494726  0.85117579     0.44170
Cu407      Cu  0.16341644  0.99535762  0.79784047     0.41990
Cu408      Cu  0.20542085  0.99494361  0.83613880     0.43880
N409        N  0.17534279  0.99488765  0.87204577    -0.32720
N410        N  0.19515564  0.99489120  0.86700992    -0.26980
C411        C  0.20641879  0.99489722  0.88457958    -0.03080
C412        C  0.19294616  0.99489767  0.90122327     0.09140
C413        C  0.17347125  0.99489090  0.89269578     0.02940
H414        H  0.22310725  0.99492085  0.88518612     0.10590
H415        H  0.15892424  0.99491054  0.90089382     0.09670
N416        N  0.20993720  0.99507316  0.80391486    -0.34170
N417        N  0.19456866  0.99524902  0.79044172    -0.26350
C418        C  0.20230447  0.99528833  0.77120722    -0.01590
C419        C  0.22357095  0.99512351  0.77233753     0.07020
C420        C  0.22793811  0.99499106  0.79337338     0.05110
H421        H  0.19304346  0.99540795  0.75731823     0.10220
H422        H  0.24301787  0.99483985  0.80052779     0.09050
N423        N  0.36298009  0.99443554  0.70219092    -0.25340
N424        N  0.36755993  0.99457569  0.68233593    -0.33190
C425        C  0.38819867  0.99451157  0.68011765     0.03010
C426        C  0.39694823  0.99431905  0.69952469     0.09030
C427        C  0.38060969  0.99427696  0.71321443    -0.04070
H428        H  0.39620185  0.99459761  0.66547264     0.09700
H429        H  0.38143281  0.99414304  0.72988038     0.10900
Cu430      Cu  0.34526845  0.99484078  0.65944643     0.44170
Cu431      Cu  0.33274428  0.99448405  0.71266239     0.41990
Cu432      Cu  0.29086230  0.99504666  0.67421466     0.43880
N433        N  0.32115223  0.99512477  0.63847247    -0.32720
N434        N  0.30130960  0.99520955  0.64339433    -0.26980
C435        C  0.29015327  0.99544603  0.62575577    -0.03080
C436        C  0.30372878  0.99551248  0.60919218     0.09140
C437        C  0.32314744  0.99530115  0.61783640     0.02940
H438        H  0.27346919  0.99558212  0.62504859     0.10590
H439        H  0.33774371  0.99530105  0.60972634     0.09670
N440        N  0.28623601  0.99486471  0.70643194    -0.34170
N441        N  0.30156977  0.99464953  0.71994477    -0.26350
C442        C  0.29378944  0.99459960  0.73915858    -0.01590
C443        C  0.27252859  0.99479645  0.73798011     0.07020
C444        C  0.26820817  0.99496001  0.71693348     0.05110
H445        H  0.30301848  0.99444844  0.75306859     0.10220
H446        H  0.25314324  0.99514549  0.70974833     0.09050
O447        O  0.96531280  0.99524270  0.78460852    -0.70990
O448        O  0.02767885  0.99530971  0.78599366    -0.71970
O449        O  0.99656269  0.96400286  0.78505630    -0.60590
O450        O  0.99651245  0.02658026  0.78530070    -0.69000
O451        O  0.99579195  0.02637057  0.81956615    -0.68550
O452        O  0.99584102  0.96397924  0.81932449    -0.59810
O453        O  0.02670127  0.99519172  0.82025427    -0.72310
O454        O  0.96485234  0.99512716  0.81887624    -0.71090
Cu455      Cu  0.99653517  0.99529048  0.78400946     1.04560
Cu456      Cu  0.99576118  0.99516507  0.82068585     1.04330
C457        C  0.95536695  0.99515335  0.80162819     0.95210
C458        C  0.03689250  0.99525143  0.80342450     0.94350
C459        C  0.99625682  0.95422647  0.80217917     0.86490
C460        C  0.99620428  0.03624515  0.80249694     0.92770
N461        N  0.19905370  0.49484027  0.64460430    -0.25340
N462        N  0.17920435  0.49495480  0.63973969    -0.33190
C463        C  0.17715907  0.49475964  0.61913151     0.03010
C464        C  0.19657170  0.49450595  0.61053444     0.09030
C465        C  0.21018908  0.49456564  0.62700375    -0.04070
H466        H  0.16255395  0.49473211  0.61102858     0.09700
H467        H  0.22687150  0.49436007  0.62627629     0.10900
Cu468      Cu  0.15522867  0.49515250  0.66071883     0.44170
Cu469      Cu  0.20962668  0.49489473  0.67515526     0.41990
Cu470      Cu  0.16802370  0.49462088  0.71375612     0.43880
N471        N  0.13314438  0.49504377  0.68366457    -0.32720
N472        N  0.13782996  0.49481911  0.70348899    -0.26980
C473        C  0.12028677  0.49475743  0.71460700    -0.03080
C474        C  0.10391582  0.49495153  0.70098001     0.09140
C475        C  0.11251645  0.49512881  0.68153590     0.02940
H476        H  0.11955250  0.49457694  0.73127668     0.10590
H477        H  0.10443067  0.49529021  0.66693270     0.09670
N478        N  0.19915107  0.49465614  0.72075257    -0.34170
N479        N  0.21437432  0.49479490  0.70713859    -0.26350
C480        C  0.23247769  0.49484758  0.71744265    -0.01590
C481        C  0.22829096  0.49473358  0.73847200     0.07020
C482        C  0.20707047  0.49460990  0.73988361     0.05110
H483        H  0.24747618  0.49496300  0.71012594     0.10220
H484        H  0.19796908  0.49451719  0.75387332     0.09050
N485        N  0.36659114  0.49517502  0.81048411    -0.25340
N486        N  0.37059892  0.49495496  0.83046876    -0.33190
C487        C  0.39116273  0.49497640  0.83327253     0.03010
C488        C  0.40041511  0.49522345  0.81411555     0.09030
C489        C  0.38449945  0.49534261  0.79997139    -0.04070
H490        H  0.39876356  0.49484050  0.84813357     0.09700
H491        H  0.38578853  0.49554637  0.78333583     0.10900
Cu492      Cu  0.34776299  0.49470492  0.85277611     0.44170
Cu493      Cu  0.33684934  0.49524393  0.79888988     0.41990
Cu494      Cu  0.29417836  0.49476460  0.83603612     0.43880
N495        N  0.32287765  0.49463989  0.87278692    -0.32720
N496        N  0.30328123  0.49466859  0.86699526    -0.26980
C497        C  0.29129196  0.49466681  0.88402257    -0.03080
C498        C  0.30407535  0.49463602  0.90113218     0.09140
C499        C  0.32390493  0.49461975  0.89348176     0.02940
H500        H  0.27459227  0.49470356  0.88392828     0.10590
H501        H  0.33809355  0.49461469  0.90229206     0.09670
N502        N  0.29041792  0.49494077  0.80397997    -0.34170
N503        N  0.30597059  0.49513780  0.79075376    -0.26350
C504        C  0.29849525  0.49519876  0.77141868    -0.01590
C505        C  0.27722394  0.49502600  0.77234816     0.07020
C506        C  0.27258134  0.49486701  0.79327558     0.05110
H507        H  0.30791364  0.49533707  0.75764124     0.10220
H508        H  0.25744119  0.49470065  0.80028839     0.09050
O509        O  0.00057689  0.52622245  0.69401124    -0.70990
O510        O  0.00040262  0.46389858  0.69385420    -0.71970
O511        O  0.96957884  0.49516006  0.69520927    -0.60590
O512        O  0.03134259  0.49499154  0.69274608    -0.69000
O513        O  0.03284507  0.49491755  0.72699910    -0.68550
O514        O  0.97073968  0.49508759  0.72947004    -0.59810
O515        O  0.00173079  0.46358587  0.72809651    -0.72310
O516        O  0.00190648  0.52639484  0.72825633    -0.71090
Cu517      Cu  0.00042583  0.49506833  0.69278184     1.04560
Cu518      Cu  0.00185389  0.49499082  0.72944371     1.04330
C519        C  0.00128163  0.53608897  0.71107119     0.95210
C520        C  0.00105682  0.45395802  0.71086640     0.94350
C521        C  0.96047222  0.49517089  0.71265898     0.86490
C522        C  0.04176247  0.49494192  0.70944128     0.92770
O523        O  0.50414875  0.52677903  0.82071581    -0.70990
O524        O  0.50405456  0.46442418  0.82149173    -0.71970
O525        O  0.53503781  0.49555865  0.81972043    -0.60590
O526        O  0.47330667  0.49567580  0.82268992    -0.69000
O527        O  0.47150063  0.49525308  0.78845496    -0.68550
O528        O  0.53368332  0.49513495  0.78547161    -0.59810
O529        O  0.50246788  0.46393457  0.78725316    -0.72310
O530        O  0.50256205  0.52643200  0.78647162    -0.71090
Cu531      Cu  0.50421278  0.49562869  0.82234287     1.04560
Cu532      Cu  0.50251028  0.49517545  0.78568731     1.04330
C533        C  0.50327296  0.53635644  0.80350136     0.95210
C534        C  0.50314198  0.45441841  0.80450881     0.94350
C535        C  0.54405515  0.49532216  0.80222987     0.86490
C536        C  0.46273262  0.49547080  0.80609805     0.92770
N537        N  0.50173010  0.63269746  0.20297153    -0.25340
N538        N  0.50115059  0.62768629  0.18317235    -0.33190
C539        C  0.50115950  0.60692565  0.18122804     0.03010
C540        C  0.50178206  0.59838646  0.20065770     0.09030
C541        C  0.50213377  0.61503553  0.21417617    -0.04070
H542        H  0.50073311  0.59868640  0.16668346     0.09700
H543        H  0.50259545  0.61438732  0.23084249     0.10900
Cu544      Cu  0.50035965  0.64861762  0.15911574     0.44170
Cu545      Cu  0.50163506  0.66349262  0.21345603     0.41990
Cu546      Cu  0.49881950  0.70189251  0.17177217     0.43880
N547        N  0.49979166  0.67166521  0.13706525    -0.32720
N548        N  0.49928126  0.69161128  0.14176859    -0.26980
C549        C  0.49898188  0.70286023  0.12430966    -0.03080
C550        C  0.49930149  0.68917267  0.10797205     0.09140
C551        C  0.49981068  0.66956572  0.11646558     0.02940
H552        H  0.49848158  0.71964327  0.12362401     0.10590
H553        H  0.50011040  0.65488731  0.10833804     0.09670
N554        N  0.49876393  0.70918584  0.20263895    -0.34170
N555        N  0.50014534  0.69570026  0.21796988    -0.26350
C556        C  0.50021516  0.70632555  0.23590660    -0.01590
C557        C  0.49875657  0.72740220  0.23143514     0.07020
C558        C  0.49779238  0.72851771  0.21027408     0.05110
H559        H  0.50123143  0.69919934  0.25097305     0.10220
H560        H  0.49672488  0.74244432  0.20100204     0.09050
N561        N  0.50128385  0.79850231  0.36907248    -0.25340
N562        N  0.50077427  0.81847342  0.37366255    -0.33190
C563        C  0.50081312  0.82069459  0.39425485     0.03010
C564        C  0.50136154  0.80113018  0.40285920     0.09030
C565        C  0.50164049  0.78735738  0.38659288    -0.04070
H566        H  0.50052786  0.83542013  0.40229886     0.09700
H567        H  0.50214983  0.77057918  0.38736982     0.10900
Cu568      Cu  0.50016683  0.84132792  0.35142580     0.44170
Cu569      Cu  0.50166952  0.78803244  0.33912470     0.41990
Cu570      Cu  0.49888804  0.82615328  0.29714573     0.43880
N571        N  0.49947732  0.86208887  0.32724112    -0.32720
N572        N  0.49890396  0.85700571  0.30745977    -0.26980
C573        C  0.49858038  0.87463449  0.29619375    -0.03080
C574        C  0.49898111  0.89132112  0.30967192     0.09140
C575        C  0.49954587  0.88284660  0.32911811     0.02940
H576        H  0.49812869  0.87523341  0.27952483     0.10590
H577        H  0.49997535  0.89113088  0.34363718     0.09670
N578        N  0.50026612  0.79390565  0.29289182    -0.34170
N579        N  0.50163086  0.78051152  0.30830385    -0.26350
C580        C  0.50252739  0.76112549  0.30078121    -0.01590
C581        C  0.50153129  0.76211811  0.27961183     0.07020
C582        C  0.50013480  0.78317338  0.27502437     0.05110
H583        H  0.50357685  0.74725171  0.31013287     0.10220
H584        H  0.49912917  0.79022105  0.25992137     0.09050
O585        O  0.46753510  0.71420013  0.00551664    -0.70990
O586        O  0.52944442  0.71360126  0.00552465    -0.71970
O587        O  0.49851285  0.71383153  0.97460570    -0.60590
O588        O  0.49853468  0.71401803  0.03648907    -0.69000
O589        O  0.49820869  0.67946995  0.03635229    -0.68550
O590        O  0.49818981  0.67928263  0.97489041    -0.59810
O591        O  0.52887631  0.67904983  0.00560954    -0.72310
O592        O  0.46746526  0.67964725  0.00560011    -0.71090
Cu593      Cu  0.49851135  0.71518175  0.00553642     1.04560
Cu594      Cu  0.49816555  0.67817176  0.00562224     1.04330
C595        C  0.45787431  0.69692503  0.00551861     0.95210
C596        C  0.53877716  0.69614870  0.00553775     0.94350
C597        C  0.49838742  0.69645935  0.96512522     0.86490
C598        C  0.49842865  0.69669600  0.04604806     0.92770
N599        N  0.13418903  0.79821363  0.00526785    -0.25340
N600        N  0.12964956  0.81820454  0.00503642    -0.33190
C601        C  0.10905414  0.82046980  0.00504141     0.03010
C602        C  0.10040220  0.80092683  0.00528658     0.09030
C603        C  0.11662519  0.78710534  0.00542555    -0.04070
H604        H  0.10104094  0.83521374  0.00488801     0.09700
H605        H  0.11579350  0.77032235  0.00562734     0.10900
Cu606      Cu  0.15184000  0.84112908  0.00477453     0.44170
Cu607      Cu  0.16408708  0.78758876  0.00533465     0.41990
Cu608      Cu  0.20597575  0.82595969  0.00479779     0.43880
N609        N  0.17599870  0.86196783  0.00472738    -0.32720
N610        N  0.19578917  0.85685282  0.00474651    -0.26980
C611        C  0.20711285  0.87446062  0.00478240    -0.03080
C612        C  0.19366513  0.89118361  0.00478682     0.09140
C613        C  0.17416612  0.88273460  0.00475058     0.02940
H614        H  0.22380310  0.87502280  0.00482682     0.10590
H615        H  0.15964661  0.89104296  0.00476860     0.09670
N616        N  0.21031902  0.79369866  0.00495988    -0.34170
N617        N  0.19494281  0.78017242  0.00518196    -0.26350
C618        C  0.20256263  0.76080355  0.00523749    -0.01590
C619        C  0.22376882  0.76196617  0.00503648     0.07020
C620        C  0.22826166  0.78308765  0.00486421     0.05110
H621        H  0.19326486  0.74684290  0.00539520     0.10220
H622        H  0.24334995  0.79026905  0.00468013     0.09050
N623        N  0.36213900  0.69196401  0.00471547    -0.25340
N624        N  0.36680298  0.67200547  0.00502026    -0.33190
C625        C  0.38741252  0.66987365  0.00520304     0.03010
C626        C  0.39594072  0.68947533  0.00500933     0.09030
C627        C  0.37962978  0.70318826  0.00470029    -0.04070
H628        H  0.39551812  0.65518300  0.00549329     0.09700
H629        H  0.38035290  0.71997649  0.00452371     0.10900
Cu630      Cu  0.34471753  0.64898308  0.00523919     0.44170
Cu631      Cu  0.33216986  0.70236252  0.00448372     0.41990
Cu632      Cu  0.29042860  0.66381416  0.00504906     0.43880
N633        N  0.32067362  0.62801903  0.00521426    -0.32720
N634        N  0.30084536  0.63298884  0.00512223    -0.26980
C635        C  0.28965581  0.61529262  0.00496603    -0.03080
C636        C  0.30323407  0.59867334  0.00496167     0.09140
C637        C  0.32266271  0.60726998  0.00512386     0.02940
H638        H  0.27297090  0.61460120  0.00480102     0.10590
H639        H  0.33724483  0.59907351  0.00510107     0.09670
N640        N  0.28595222  0.69606502  0.00483209    -0.34170
N641        N  0.30128735  0.70963878  0.00459235    -0.26350
C642        C  0.29361435  0.72898277  0.00451049    -0.01590
C643        C  0.27241467  0.72776182  0.00471124     0.07020
C644        C  0.26797705  0.70662759  0.00491136     0.05110
H645        H  0.30287422  0.74296893  0.00434329     0.10220
H646        H  0.25290587  0.69940969  0.00510977     0.09050
N647        N  0.99703142  0.79774473  0.14166515    -0.25340
N648        N  0.99706911  0.81776980  0.13725803    -0.33190
C649        C  0.99722195  0.82017891  0.11669968     0.03010
C650        C  0.99728447  0.80070029  0.10791702     0.09030
C651        C  0.99716061  0.78676556  0.12403034    -0.04070
H652        H  0.99733244  0.83498021  0.10880173     0.09700
H653        H  0.99721460  0.76998824  0.12307525     0.10900
Cu654      Cu  0.99706805  0.84061589  0.15947584     0.44170
Cu655      Cu  0.99697781  0.78681109  0.17147152     0.41990
Cu656      Cu  0.99745667  0.82507721  0.21327558     0.43880
N657        N  0.99725407  0.86120162  0.18378136    -0.32720
N658        N  0.99741551  0.85584798  0.20347980    -0.26980
C659        C  0.99756924  0.87323631  0.21506434    -0.03080
C660        C  0.99749864  0.89007830  0.20186641     0.09140
C661        C  0.99729871  0.88197491  0.18224809     0.02940
H662        H  0.99774101  0.87355165  0.23174674     0.10590
H663        H  0.99722062  0.89050769  0.16787281     0.09670
N664        N  0.99742756  0.79304337  0.21760484    -0.34170
N665        N  0.99722658  0.77940628  0.20234412    -0.26350
C666        C  0.99731715  0.76011737  0.21016294    -0.01590
C667        C  0.99759127  0.76155532  0.23135203     0.07020
C668        C  0.99765330  0.78268057  0.23562285     0.05110
H669        H  0.99723474  0.74604698  0.20103356     0.10220
H670        H  0.99788071  0.79006191  0.25060414     0.09050
N671        N  0.00086248  0.69244553  0.37019910    -0.25340
N672        N  0.00131066  0.67249710  0.37495352    -0.33190
C673        C  0.00186289  0.67054538  0.39558682     0.03010
C674        C  0.00175953  0.69023463  0.40400494     0.09030
C675        C  0.00111550  0.70378509  0.38760193    -0.04070
H676        H  0.00230357  0.65592119  0.40379090     0.09700
H677        H  0.00084676  0.72057701  0.38820417     0.10900
Cu678      Cu  0.00119068  0.64920446  0.35292131     0.44170
Cu679      Cu  0.99997021  0.70308107  0.34032405     0.41990
Cu680      Cu  0.99976943  0.66498246  0.29888521     0.43880
N681        N  0.00115463  0.62868207  0.32831313    -0.32720
N682        N  0.00064387  0.63422702  0.30866027    -0.26980
C683        C  0.00085353  0.61698825  0.29686422    -0.03080
C684        C  0.00153353  0.59997532  0.30980516     0.09140
C685        C  0.00170118  0.60786293  0.32955440     0.02940
H686        H  0.00054855  0.61689148  0.28018078     0.10590
H687        H  0.00219845  0.59914475  0.34381009     0.09670
N688        N  0.99916262  0.69695373  0.29428609    -0.34170
N689        N  0.99924689  0.71060861  0.30951873    -0.26350
C690        C  0.99887582  0.72988558  0.30168526    -0.01590
C691        C  0.99853974  0.72841517  0.28049790     0.07020
C692        C  0.99872999  0.70728199  0.27625036     0.05110
H693        H  0.99889220  0.74396668  0.31079879     0.10220
H694        H  0.99861376  0.69987974  0.26127779     0.09050
O695        O  0.96738533  0.81148382  0.00563467    -0.70990
O696        O  0.02881996  0.81100162  0.00563596    -0.71970
O697        O  0.99806828  0.81148245  0.97493257    -0.60590
O698        O  0.99808206  0.81101510  0.03634737    -0.69000
O699        O  0.99782020  0.77646295  0.03630021    -0.68550
O700        O  0.99780604  0.77693408  0.97443046    -0.59810
O701        O  0.02878481  0.77644868  0.00536619    -0.72310
O702        O  0.96690969  0.77693074  0.00536475    -0.71090
Cu703      Cu  0.99810559  0.81243808  0.00564894     1.04560
Cu704      Cu  0.99782730  0.77542543  0.00535753     1.04330
C705        C  0.95753187  0.79435459  0.00548808     0.95210
C706        C  0.03842728  0.79373052  0.00549368     0.94350
C707        C  0.99788980  0.79436191  0.96506229     0.86490
C708        C  0.99791088  0.79374515  0.04594332     0.92770
N709        N  0.19694199  0.63061732  0.50611565    -0.25340
N710        N  0.17691540  0.62680473  0.50622978    -0.33190
C711        C  0.17383574  0.60618898  0.50639562     0.03010
C712        C  0.19288342  0.59670086  0.50638774     0.09030
C713        C  0.20726374  0.61249568  0.50620782    -0.04070
H714        H  0.15886881  0.59872909  0.50657009     0.09700
H715        H  0.22389777  0.61098880  0.50620676     0.10900
Cu716      Cu  0.15500275  0.64992273  0.50630039     0.44170
Cu717      Cu  0.20855655  0.66043276  0.50600819     0.41990
Cu718      Cu  0.17132628  0.70381316  0.50637954     0.43880
N719        N  0.13482367  0.67459653  0.50637986    -0.32720
N720        N  0.14027924  0.69440532  0.50640736    -0.26980
C721        C  0.12295411  0.70609795  0.50641331    -0.03080
C722        C  0.10608888  0.69282587  0.50638806     0.09140
C723        C  0.11416966  0.67309200  0.50636956     0.02940
H724        H  0.12267200  0.72289832  0.50641619     0.10590
H725        H  0.10567923  0.65861689  0.50633040     0.09670
N726        N  0.20358422  0.70721424  0.50625599    -0.34170
N727        N  0.21666584  0.69141771  0.50610443    -0.26350
C728        C  0.23610199  0.69866620  0.50605035    -0.01590
C729        C  0.23545929  0.72004859  0.50617329     0.07020
C730        C  0.21456035  0.72501723  0.50630232     0.05110
H731        H  0.24976184  0.68899783  0.50593301     0.10220
H732        H  0.20776381  0.74035443  0.50641784     0.09050
N733        N  0.36458231  0.79764014  0.50569748    -0.25340
N734        N  0.36936228  0.81763876  0.50564644    -0.33190
C735        C  0.38997299  0.81982417  0.50552825     0.03010
C736        C  0.39871068  0.80036078  0.50549910     0.09030
C737        C  0.38228943  0.78655088  0.50561069    -0.04070
H738        H  0.39798517  0.83457224  0.50545656     0.09700
H739        H  0.38312887  0.76976950  0.50561916     0.10900
Cu740      Cu  0.34838199  0.84173608  0.50569639     0.44170
Cu741      Cu  0.33395536  0.78683551  0.50586545     0.41990
Cu742      Cu  0.29553155  0.82877699  0.50608410     0.43880
N743        N  0.32541390  0.86390180  0.50572499    -0.32720
N744        N  0.30560779  0.85907706  0.50587567    -0.26980
C745        C  0.29434840  0.87661677  0.50584628    -0.03080
C746        C  0.30787234  0.89314160  0.50566755     0.09140
C747        C  0.32740731  0.88466271  0.50559494     0.02940
H748        H  0.27765831  0.87723523  0.50594565     0.10590
H749        H  0.34196183  0.89290754  0.50545855     0.09670
N750        N  0.28835769  0.79763665  0.50615473    -0.34170
N751        N  0.30182926  0.78218389  0.50605744    -0.26350
C752        C  0.29126671  0.76409886  0.50609361    -0.01590
C753        C  0.27025486  0.76860471  0.50622095     0.07020
C754        C  0.26912037  0.78994449  0.50625850     0.05110
H755        H  0.29837970  0.74890494  0.50602361     0.10220
H756        H  0.25524391  0.79929704  0.50633542     0.09050
O757        O  0.00276659  0.71579311  0.53760749    -0.70990
O758        O  0.00260285  0.71626991  0.47541278    -0.71970
O759        O  0.97161650  0.71626298  0.50659325    -0.60590
O760        O  0.03377841  0.71644273  0.50644274    -0.69000
O761        O  0.03390281  0.68193137  0.50617280    -0.68550
O762        O  0.97165743  0.68175173  0.50632599    -0.59810
O763        O  0.00269421  0.68173343  0.47558966    -0.72310
O764        O  0.00285860  0.68126335  0.53688466    -0.71090
Cu765      Cu  0.00269318  0.71744267  0.50652054     1.04560
Cu766      Cu  0.00278705  0.68048337  0.50623029     1.04330
C767        C  0.00280781  0.69828504  0.54688577     0.95210
C768        C  0.00259722  0.69890518  0.46585906     0.94350
C769        C  0.96191057  0.69901219  0.50650520     0.86490
C770        C  0.04356557  0.69924117  0.50629908     0.92770
O771        O  0.50186573  0.77652560  0.53635136    -0.70990
O772        O  0.50200829  0.77618789  0.47436992    -0.71970
O773        O  0.53306776  0.77564655  0.50548579    -0.60590
O774        O  0.47084973  0.77669909  0.50529556    -0.69000
O775        O  0.47139612  0.81120551  0.50513322    -0.68550
O776        O  0.53363428  0.81015176  0.50532957    -0.59810
O777        O  0.50257693  0.81072438  0.47451037    -0.72310
O778        O  0.50242769  0.81106125  0.53590405    -0.71090
Cu779      Cu  0.50193498  0.77503034  0.50537468     1.04560
Cu780      Cu  0.50253732  0.81198849  0.50520563     1.04330
C781        C  0.50209425  0.79394954  0.54575522     0.95210
C782        C  0.50225944  0.79351626  0.46480722     0.94350
C783        C  0.54308186  0.79272626  0.50549019     0.86490
C784        C  0.46139301  0.79409540  0.50521605     0.92770
N785        N  0.50074719  0.19101939  0.36927380    -0.25340
N786        N  0.50047408  0.17096097  0.37350164    -0.33190
C787        C  0.50072963  0.16835624  0.39403724     0.03010
C788        C  0.50118820  0.18774688  0.40300515     0.09030
C789        C  0.50118502  0.20183309  0.38700955    -0.04070
H790        H  0.50060297  0.15348136  0.40179672     0.09700
H791        H  0.50148499  0.21859867  0.38811476     0.10900
Cu792      Cu  0.49983594  0.14837511  0.35102809     0.44170
Cu793      Cu  0.50053636  0.20210708  0.33951700     0.41990
Cu794      Cu  0.49952183  0.16407662  0.29724909     0.43880
N795        N  0.49936604  0.12782584  0.32669155    -0.32720
N796        N  0.49925794  0.13315640  0.30698346    -0.26980
C797        C  0.49898162  0.11570381  0.29545336    -0.03080
C798        C  0.49891334  0.09885995  0.30870690     0.09140
C799        C  0.49916391  0.10705544  0.32828379     0.02940
H800        H  0.49885268  0.11533601  0.27877170     0.10590
H801        H  0.49921239  0.09857567  0.34268963     0.09670
N802        N  0.49987400  0.19627588  0.29326944    -0.34170
N803        N  0.50024832  0.20973542  0.30869224    -0.26350
C804        C  0.50039648  0.22912556  0.30111965    -0.01590
C805        C  0.50009877  0.22799067  0.27991846     0.07020
C806        C  0.49977110  0.20690371  0.27538175     0.05110
H807        H  0.50069386  0.24306982  0.31043422     0.10220
H808        H  0.49948167  0.19973584  0.26029954     0.09050
N809        N  0.50100710  0.35647826  0.20313856    -0.25340
N810        N  0.50083297  0.36169773  0.18339507    -0.33190
C811        C  0.50114286  0.38247557  0.18171619     0.03010
C812        C  0.50153217  0.39077025  0.20126942     0.09030
C813        C  0.50143327  0.37398223  0.21458031    -0.04070
H814        H  0.50107291  0.39089343  0.16727490     0.09700
H815        H  0.50163625  0.37442250  0.23125943     0.10900
Cu816      Cu  0.50018994  0.34094367  0.15913840     0.44170
Cu817      Cu  0.50062443  0.32566934  0.21322390     0.41990
Cu818      Cu  0.49941212  0.28734826  0.17146075     0.43880
N819        N  0.49972710  0.31794324  0.13698153    -0.32720
N820        N  0.49944220  0.29796103  0.14155986    -0.26980
C821        C  0.49933769  0.28680758  0.12403019    -0.03080
C822        C  0.49956682  0.30057384  0.10777319     0.09140
C823        C  0.49980973  0.32014465  0.11638863     0.02940
H824        H  0.49917961  0.27002171  0.12324221     0.10590
H825        H  0.50009901  0.33486470  0.10834841     0.09670
N826        N  0.49966956  0.27995444  0.20231351    -0.34170
N827        N  0.50012518  0.29352868  0.21762890    -0.26350
C828        C  0.50022318  0.28303042  0.23560108    -0.01590
C829        C  0.49980986  0.26191201  0.23120444     0.07020
C830        C  0.49946651  0.26062683  0.21001804     0.05110
H831        H  0.50058409  0.29029278  0.25063803     0.10220
H832        H  0.49911646  0.24661871  0.20079994     0.09050
O833        O  0.52904871  0.99541985  0.32040993    -0.70990
O834        O  0.46760809  0.99529142  0.31982179    -0.71970
O835        O  0.49841090  0.96411478  0.32018453    -0.60590
O836        O  0.49829653  0.02654775  0.31952907    -0.69000
O837        O  0.49860813  0.02620849  0.28524895    -0.68550
O838        O  0.49871843  0.96375741  0.28590822    -0.59810
O839        O  0.46753313  0.99493533  0.28552968    -0.72310
O840        O  0.52974210  0.99506083  0.28612193    -0.71090
Cu841      Cu  0.49832583  0.99535814  0.32116859     1.04560
Cu842      Cu  0.49865812  0.99497680  0.28446014     1.04330
C843        C  0.53904441  0.99526184  0.30349795     0.95210
C844        C  0.45791144  0.99509951  0.30272848     0.94350
C845        C  0.49860504  0.95417284  0.30313120     0.86490
C846        C  0.49846461  0.03613149  0.30228711     0.92770
O847        O  0.46958893  0.31037900  0.00524642    -0.70990
O848        O  0.53141583  0.30893046  0.00527956    -0.71970
O849        O  0.50047629  0.30955023  0.97449375    -0.60590
O850        O  0.50046799  0.30988648  0.03598306    -0.69000
O851        O  0.49970108  0.27535369  0.03639966    -0.68550
O852        O  0.49971063  0.27501799  0.97443016    -0.59810
O853        O  0.53079787  0.27440911  0.00544932    -0.72310
O854        O  0.46868202  0.27586028  0.00541506    -0.71090
Cu855      Cu  0.50052251  0.31087968  0.00524372     1.04560
Cu856      Cu  0.49970063  0.27390897  0.00542787     1.04330
C857        C  0.45945925  0.29338322  0.00533763     0.95210
C858        C  0.54079441  0.29149955  0.00538381     0.94350
C859        C  0.50005214  0.29231418  0.96482016     0.86490
C860        C  0.50003998  0.29276124  0.04582371     0.92770
N861        N  0.19927790  0.35571684  0.50654683    -0.25340
N862        N  0.17946131  0.36069665  0.50659532    -0.33190
C863        C  0.17752558  0.38143228  0.50672615     0.03010
C864        C  0.19699894  0.38989998  0.50676811     0.09030
C865        C  0.21053232  0.37332134  0.50665099    -0.04070
H866        H  0.16297623  0.38968804  0.50680208     0.09700
H867        H  0.22722059  0.37395910  0.50665557     0.10900
Cu868      Cu  0.15548326  0.33974394  0.50650923     0.44170
Cu869      Cu  0.20973889  0.32516935  0.50636223     0.41990
Cu870      Cu  0.16835463  0.28642672  0.50599188     0.43880
N871        N  0.13361387  0.31659086  0.50624937    -0.32720
N872        N  0.13839397  0.29666111  0.50604100    -0.26980
C873        C  0.12098400  0.28533352  0.50573516    -0.03080
C874        C  0.10461853  0.29896432  0.50575481     0.09140
C875        C  0.11300647  0.31861056  0.50608494     0.02940
H876        H  0.12035818  0.26854275  0.50543505     0.10590
H877        H  0.10481350  0.33325521  0.50611009     0.09670
N878        N  0.19924159  0.27946185  0.50598420    -0.34170
N879        N  0.21442190  0.29319527  0.50613960    -0.26350
C880        C  0.23251673  0.28292303  0.50613871    -0.01590
C881        C  0.22831105  0.26178826  0.50597192     0.07020
C882        C  0.20714386  0.26023356  0.50587215     0.05110
H883        H  0.24748786  0.29035118  0.50625939     0.10220
H884        H  0.19807335  0.24612179  0.50575347     0.09050
N885        N  0.30268528  0.13351729  0.50548245    -0.25340
N886        N  0.32222661  0.12756060  0.50545538    -0.33190
C887        C  0.32311749  0.10674792  0.50535500     0.03010
C888        C  0.30322964  0.09927636  0.50531573     0.09030
C889        C  0.29055298  0.11651798  0.50539995    -0.04070
H890        H  0.33723261  0.09776132  0.50533573     0.09700
H891        H  0.27385419  0.11673694  0.50542599     0.10900
Cu892      Cu  0.34709520  0.14748183  0.50558732     0.44170
Cu893      Cu  0.29384659  0.16452223  0.50569335     0.41990
Cu894      Cu  0.33644371  0.20175213  0.50628132     0.43880
N895        N  0.36981741  0.16983542  0.50566475    -0.32720
N896        N  0.36587736  0.18996203  0.50593385    -0.26980
C897        C  0.38375289  0.20052674  0.50587174    -0.03080
C898        C  0.39953569  0.18622638  0.50554490     0.09140
C899        C  0.39033163  0.16695117  0.50542515     0.02940
H900        H  0.38508799  0.21727752  0.50604659     0.10590
H901        H  0.39790728  0.15197591  0.50518233     0.09670
N902        N  0.30580548  0.20990901  0.50624949    -0.34170
N903        N  0.29027306  0.19658898  0.50600214    -0.26350
C904        C  0.27246218  0.20729146  0.50595864    -0.01590
C905        C  0.27714782  0.22831908  0.50618794     0.07020
C906        C  0.29837187  0.22935598  0.50637186     0.05110
H907        H  0.25734347  0.20018126  0.50575643     0.10220
H908        H  0.30777880  0.24324143  0.50654719     0.09050
O909        O  0.97134384  0.27500668  0.50528789    -0.70990
O910        O  0.03312116  0.27433227  0.50514707    -0.71970
O911        O  0.00229554  0.27593364  0.53628275    -0.60590
O912        O  0.00212775  0.27356299  0.47400936    -0.69000
O913        O  0.00248716  0.30806527  0.47303591    -0.68550
O914        O  0.00265342  0.31042346  0.53479720    -0.59810
O915        O  0.03327664  0.30886452  0.50390630    -0.72310
O916        O  0.97188810  0.30953548  0.50404441    -0.71090
Cu917      Cu  0.00221492  0.27344694  0.50521221     1.04560
Cu918      Cu  0.00259626  0.31040614  0.50388450     1.04330
C919        C  0.96200963  0.29243825  0.50479739     0.95210
C920        C  0.04280811  0.29156794  0.50459331     0.94350
C921        C  0.00245758  0.29362749  0.54522217     0.86490
C922        C  0.00225276  0.29055067  0.46381932     0.92770
O923        O  0.31436398  0.99687831  0.53652224    -0.70990
O924        O  0.31416941  0.99674510  0.47421878    -0.71970
O925        O  0.31313080  0.02781764  0.50531344    -0.60590
O926        O  0.31556786  0.96590285  0.50541710    -0.69000
O927        O  0.28127818  0.96435309  0.50551682    -0.68550
O928        O  0.27882835  0.02673820  0.50541201    -0.59810
O929        O  0.27991190  0.99543263  0.47423264    -0.72310
O930        O  0.28010808  0.99556624  0.53670855    -0.71090
Cu931      Cu  0.31549274  0.99689334  0.50536439     1.04560
Cu932      Cu  0.27880644  0.99548247  0.50547100     1.04330
C933        C  0.29729422  0.99618389  0.54637979     0.95210
C934        C  0.29703717  0.99601515  0.46446417     0.94350
C935        C  0.29569079  0.03699391  0.50534126     0.86490
C936        C  0.29887220  0.95543044  0.50548431     0.92770
N937        N  0.13298275  0.19204559  0.00519662    -0.25340
N938        N  0.12862548  0.17199978  0.00500086    -0.33190
C939        C  0.10804068  0.16949138  0.00528397     0.03010
C940        C  0.09909414  0.18890668  0.00568039     0.09030
C941        C  0.11523338  0.20292050  0.00561218    -0.04070
H942        H  0.10021808  0.15464180  0.00528432     0.09700
H943        H  0.11420076  0.21968977  0.00591457     0.10900
Cu944      Cu  0.15097492  0.14916598  0.00460774     0.44170
Cu945      Cu  0.16305170  0.20297062  0.00506058     0.41990
Cu946      Cu  0.20497228  0.16433964  0.00468275     0.43880
N947        N  0.17512662  0.12825961  0.00458228    -0.32720
N948        N  0.19490655  0.13341077  0.00463031    -0.26980
C949        C  0.20627123  0.11583008  0.00469155    -0.03080
C950        C  0.19286509  0.09906822  0.00468262     0.09140
C951        C  0.17334145  0.10748065  0.00461296     0.02940
H952        H  0.22296300  0.11531159  0.00476385     0.10590
H953        H  0.15884069  0.09913673  0.00461798     0.09670
N954        N  0.20946127  0.19658112  0.00479459    -0.34170
N955        N  0.19420376  0.21025932  0.00493730    -0.26350
C956        C  0.20212098  0.22954965  0.00498708    -0.01590
C957        C  0.22336723  0.22814886  0.00486708     0.07020
C958        C  0.22754419  0.20697155  0.00474685     0.05110
H959        H  0.19301239  0.24363340  0.00510081     0.10220
H960        H  0.24253761  0.19959239  0.00463604     0.09050
N961        N  0.36323710  0.29753384  0.00499283    -0.25340
N962        N  0.36761754  0.31757185  0.00517477    -0.33190
C963        C  0.38820094  0.32006396  0.00532679     0.03010
C964        C  0.39712948  0.30064242  0.00524042     0.09030
C965        C  0.38097965  0.28663838  0.00502612    -0.04070
H966        H  0.39603494  0.33490686  0.00548358     0.09700
H967        H  0.38200180  0.26986632  0.00490362     0.10900
Cu968      Cu  0.34530764  0.34040576  0.00520743     0.44170
Cu969      Cu  0.33313181  0.28671168  0.00475310     0.41990
Cu970      Cu  0.29125670  0.32549790  0.00501559     0.43880
N971        N  0.32128308  0.36141213  0.00513142    -0.32720
N972        N  0.30147256  0.35638640  0.00505335    -0.26980
C973        C  0.29022781  0.37404701  0.00490736    -0.03080
C974        C  0.30375642  0.39071432  0.00489400     0.09140
C975        C  0.32321399  0.38217142  0.00504015     0.02940
H976        H  0.27354048  0.37468330  0.00476599     0.10590
H977        H  0.33777278  0.39041255  0.00502206     0.09670
N978        N  0.28671798  0.29325367  0.00486163    -0.34170
N979        N  0.30195052  0.27954402  0.00473666    -0.26350
C980        C  0.29399783  0.26027057  0.00465809    -0.01590
C981        C  0.27275636  0.26170874  0.00474246     0.07020
C982        C  0.26861512  0.28289337  0.00486970     0.05110
H983        H  0.30308140  0.24617023  0.00456689     0.10220
H984        H  0.25363262  0.29029554  0.00496705     0.09050
N985        N  0.19600542  0.99498205  0.14289218    -0.25340
N986        N  0.17618077  0.99502359  0.13788230    -0.33190
C987        C  0.17425750  0.99505273  0.11724201     0.03010
C988        C  0.19370528  0.99503092  0.10868388     0.09030
C989        C  0.20722270  0.99498550  0.12529919    -0.04070
H990        H  0.15968974  0.99508908  0.10907276     0.09700
H991        H  0.22390921  0.99496045  0.12465781     0.10900
Cu992      Cu  0.15196856  0.99502723  0.15868460     0.44170
Cu993      Cu  0.20639210  0.99492878  0.17374379     0.41990
Cu994      Cu  0.16442648  0.99493381  0.21178230     0.43880
N995        N  0.12974001  0.99489314  0.18156433    -0.32720
N996        N  0.13439443  0.99485386  0.20139547    -0.26980
C997        C  0.11688403  0.99464042  0.21252933    -0.03080
C998        C  0.10053628  0.99454219  0.19892271     0.09140
C999        C  0.10910649  0.99470772  0.17945224     0.02940
H1000       H  0.11616622  0.99450421  0.22920062     0.10590
H1001       H  0.10100168  0.99463362  0.16485867     0.09670
N1002       N  0.19531403  0.99490248  0.21932145    -0.34170
N1003       N  0.21079043  0.99489376  0.20599580    -0.26350
C1004       C  0.22866332  0.99485849  0.21675009    -0.01590
C1005       C  0.22400986  0.99484376  0.23773202     0.07020
C1006       C  0.20278000  0.99487224  0.23863058     0.05110
H1007       H  0.24382929  0.99484446  0.20978697     0.10220
H1008       H  0.19334716  0.99486887  0.25240046     0.09050
N1009       N  0.36201660  0.99476934  0.30867194    -0.25340
N1010       N  0.36681150  0.99471690  0.32846833    -0.33190
C1011       C  0.38746535  0.99478585  0.33042541     0.03010
C1012       C  0.39589460  0.99488512  0.31088493     0.09030
C1013       C  0.37944244  0.99487193  0.29740707    -0.04070
H1014       H  0.39567974  0.99477773  0.34495788     0.09700
H1015       H  0.38003358  0.99494095  0.28073052     0.10900
Cu1016     Cu  0.34468579  0.99462732  0.35146699     0.44170
Cu1017     Cu  0.33191669  0.99473609  0.29850462     0.41990
Cu1018     Cu  0.29010309  0.99480085  0.33666944     0.43880
N1019       N  0.32054042  0.99480012  0.37236347    -0.32720
N1020       N  0.30068701  0.99489065  0.36745924    -0.26980
C1021       C  0.28956616  0.99512146  0.38511325    -0.03080
C1022       C  0.30317448  0.99517708  0.40165498     0.09140
C1023       C  0.32257263  0.99496630  0.39299244     0.02940
H1024       H  0.27288392  0.99528177  0.38584470     0.10590
H1025       H  0.33718373  0.99498692  0.40108386     0.09670
N1026       N  0.28557159  0.99475789  0.30443225    -0.34170
N1027       N  0.30101238  0.99473534  0.29106646    -0.26350
C1028       C  0.29350132  0.99473268  0.27177778    -0.01590
C1029       C  0.27227609  0.99475507  0.27272627     0.07020
C1030       C  0.26767000  0.99476973  0.29372004     0.05110
H1031       H  0.30290212  0.99472457  0.25798596     0.10220
H1032       H  0.25251881  0.99479697  0.30071563     0.09050
N1033       N  0.99729624  0.19385118  0.14426141    -0.25340
N1034       N  0.99720105  0.17404032  0.13880247    -0.33190
C1035       C  0.99700011  0.17260699  0.11815134     0.03010
C1036       C  0.99696207  0.19239592  0.11016591     0.09030
C1037       C  0.99715464  0.20559583  0.12702223    -0.04070
H1038       H  0.99685785  0.15816632  0.10960648     0.09700
H1039       H  0.99716046  0.22239719  0.12680375     0.10900
Cu1040     Cu  0.99724902  0.14936203  0.15906947     0.44170
Cu1041     Cu  0.99753686  0.20348499  0.17507420     0.41990
Cu1042     Cu  0.99740232  0.16071145  0.21255805     0.43880
N1043       N  0.99726603  0.12659316  0.18141568    -0.32720
N1044       N  0.99731710  0.13075585  0.20136298    -0.26980
C1045       C  0.99738776  0.11282996  0.21200059    -0.03080
C1046       C  0.99737766  0.09677068  0.19792707     0.09140
C1047       C  0.99729931  0.10591397  0.17872107     0.02940
H1048       H  0.99748338  0.11163606  0.22864517     0.10590
H1049       H  0.99730890  0.09817148  0.16390597     0.09670
N1050       N  0.99763872  0.19174750  0.22036758    -0.34170
N1051       N  0.99770350  0.20737214  0.20711507    -0.26350
C1052       C  0.99791349  0.22532364  0.21781739    -0.01590
C1053       C  0.99798389  0.22061742  0.23873411     0.07020
C1054       C  0.99780517  0.19925019  0.23968106     0.05110
H1055       H  0.99802722  0.24056721  0.21082553     0.10220
H1056       H  0.99781918  0.18977137  0.25345692     0.09050
N1057       N  0.00088158  0.29643360  0.36743502    -0.25340
N1058       N  0.00136642  0.31622664  0.37297386    -0.33190
C1059       C  0.00180553  0.31751267  0.39365034     0.03010
C1060       C  0.00159319  0.29766112  0.40154229     0.09030
C1061       C  0.00100129  0.28458942  0.38460656    -0.04070
H1062       H  0.00223788  0.33189310  0.40228404     0.09700
H1063       H  0.00067331  0.26778977  0.38472397     0.10900
Cu1064     Cu  0.00143501  0.34110124  0.35273413     0.44170
Cu1065     Cu  0.00008723  0.28673454  0.33665572     0.41990
Cu1066     Cu  0.00007861  0.32923413  0.29926593     0.43880
N1067       N  0.00148547  0.36372285  0.33005032    -0.32720
N1068       N  0.00097612  0.35926379  0.31016725    -0.26980
C1069       C  0.00117475  0.37699697  0.29922523    -0.03080
C1070       C  0.00184629  0.39330296  0.31298209     0.09140
C1071       C  0.00202276  0.38446732  0.33236793     0.02940
H1072       H  0.00084875  0.37789429  0.28256503     0.10590
H1073       H  0.00249765  0.39246765  0.34703944     0.09670
N1074       N  0.99942773  0.29824711  0.29138906    -0.34170
N1075       N  0.99943834  0.28264473  0.30465659    -0.26350
C1076       C  0.99904766  0.26467913  0.29397993    -0.01590
C1077       C  0.99878486  0.26936685  0.27305724     0.07020
C1078       C  0.99903326  0.29073246  0.27208562     0.05110
H1079       H  0.99900279  0.24944233  0.30098727     0.10220
H1080       H  0.99897949  0.30019922  0.25830158     0.09050
O1081       O  0.96725116  0.99284992  0.18934735    -0.70990
O1082       O  0.02874735  0.99290367  0.18966319    -0.71970
O1083       O  0.99799360  0.96179769  0.19072519    -0.60590
O1084       O  0.99795205  0.02386016  0.18854899    -0.69000
O1085       O  0.99779158  0.02516805  0.22282560    -0.68550
O1086       O  0.99783121  0.96285927  0.22500448    -0.59810
O1087       O  0.02890299  0.99408984  0.22394113    -0.72310
O1088       O  0.96677989  0.99403846  0.22362570    -0.71090
Cu1089     Cu  0.99799700  0.99279742  0.18839243     1.04560
Cu1090     Cu  0.99782523  0.99407115  0.22510201     1.04330
C1091       C  0.95737041  0.99351465  0.20632321     0.95210
C1092       C  0.03848009  0.99357537  0.20673241     0.94350
C1093       C  0.99788830  0.95260973  0.20815699     0.86490
C1094       C  0.99783017  0.03421659  0.20532168     0.92770
O1095       O  0.18270183  0.99500651  0.97388826    -0.70990
O1096       O  0.18296726  0.99505545  0.03614563    -0.71970
O1097       O  0.18271881  0.02626727  0.00500355    -0.60590
O1098       O  0.18300354  0.96381982  0.00502664    -0.69000
O1099       O  0.21730018  0.96388697  0.00489075    -0.68550
O1100       O  0.21701275  0.02652425  0.00486755    -0.59810
O1101       O  0.21724515  0.99521457  0.03613697    -0.72310
O1102       O  0.21697794  0.99516549  0.97362250    -0.71090
Cu1103     Cu  0.18165657  0.99503373  0.00502270     1.04560
Cu1104     Cu  0.21834176  0.99520557  0.00487667     1.04330
C1105       C  0.19975540  0.99506553  0.96399088     0.95210
C1106       C  0.20010565  0.99512703  0.04590418     0.94350
C1107       C  0.19979366  0.03617756  0.00492137     0.86490
C1108       C  0.20016978  0.95407602  0.00495461     0.92770
O1109       O  0.02660812  0.17935985  0.00774799    -0.70990
O1110       O  0.96479279  0.18090896  0.00778683    -0.71970
O1111       O  0.99567441  0.17895100  0.97694315    -0.60590
O1112       O  0.99578959  0.18130774  0.03871785    -0.69000
O1113       O  0.99660770  0.21580018  0.03766006    -0.68550
O1114       O  0.99649180  0.21343811  0.97554535    -0.59810
O1115       O  0.96544605  0.21540345  0.00655079    -0.72310
O1116       O  0.02758713  0.21385014  0.00651202    -0.71090
Cu1117     Cu  0.99567903  0.17893938  0.00785943     1.04560
Cu1118     Cu  0.99655709  0.21586281  0.00653605     1.04330
C1119       C  0.03677574  0.19631429  0.00703259     0.95210
C1120       C  0.95542975  0.19833126  0.00708180     0.94350
C1121       C  0.99610660  0.19578069  0.96657423     0.86490
C1122       C  0.99626054  0.19885086  0.04788009     0.92770
N1123       N  0.19753471  0.49496041  0.37019585    -0.25340
N1124       N  0.17750083  0.49468637  0.37400111    -0.33190
C1125       C  0.17443820  0.49433588  0.39449901     0.03010
C1126       C  0.19347261  0.49438352  0.40401142     0.09030
C1127       C  0.20783953  0.49478700  0.38825285    -0.04070
H1128       H  0.15946603  0.49401393  0.40188519     0.09700
H1129       H  0.22447205  0.49488178  0.38975950     0.10900
Cu1130     Cu  0.15542308  0.49467609  0.35102559     0.44170
Cu1131     Cu  0.20914685  0.49534141  0.34033265     0.41990
Cu1132     Cu  0.17152189  0.49491531  0.29741911     0.43880
N1133       N  0.13503019  0.49486175  0.32654234    -0.32720
N1134       N  0.14043201  0.49497186  0.30685437    -0.26980
C1135       C  0.12306388  0.49525993  0.29527932    -0.03080
C1136       C  0.10619240  0.49533226  0.30846879     0.09140
C1137       C  0.11435681  0.49506950  0.32805987     0.02940
H1138       H  0.12275204  0.49547782  0.27859829     0.10590
H1139       H  0.10589923  0.49511265  0.34244934     0.09670
N1140       N  0.20381501  0.49504033  0.29371047    -0.34170
N1141       N  0.21707252  0.49525696  0.30926851    -0.26350
C1142       C  0.23643392  0.49529120  0.30177851    -0.01590
C1143       C  0.23556581  0.49507275  0.28050325     0.07020
C1144       C  0.21458605  0.49492058  0.27588148     0.05110
H1145       H  0.25021928  0.49542544  0.31120217     0.10220
H1146       H  0.20759858  0.49472957  0.26073543     0.09050
N1147       N  0.30506479  0.49448739  0.14100605    -0.25340
N1148       N  0.32489190  0.49480506  0.13624974    -0.33190
C1149       C  0.32691999  0.49493399  0.11560920     0.03010
C1150       C  0.30741635  0.49468738  0.10704635     0.09030
C1151       C  0.29386878  0.49440601  0.12349489    -0.04070
H1152       H  0.34150136  0.49518123  0.10747839     0.09700
H1153       H  0.27718277  0.49416512  0.12282627     0.10900
Cu1154     Cu  0.34799393  0.49500729  0.15832328     0.44170
Cu1155     Cu  0.29486268  0.49424595  0.17130411     0.41990
Cu1156     Cu  0.33355771  0.49484621  0.21284153     0.43880
N1157       N  0.36910350  0.49496179  0.18231893    -0.32720
N1158       N  0.36426923  0.49489418  0.20216777    -0.26980
C1159       C  0.38195294  0.49478926  0.21324527    -0.03080
C1160       C  0.39846060  0.49478906  0.19962238     0.09140
C1161       C  0.38975056  0.49490176  0.18024515     0.02940
H1162       H  0.38272476  0.49468908  0.22991257     0.10590
H1163       H  0.39781654  0.49490537  0.16563310     0.09670
N1164       N  0.30140467  0.49463719  0.21772805    -0.34170
N1165       N  0.28778715  0.49436690  0.20249461    -0.26350
C1166       C  0.26861679  0.49429699  0.21039308    -0.01590
C1167       C  0.26994378  0.49454649  0.23162409     0.07020
C1168       C  0.29102417  0.49475576  0.23581411     0.05110
H1169       H  0.25463362  0.49411887  0.20126487     0.10220
H1170       H  0.29830839  0.49499207  0.25082156     0.09050
O1171       O  0.00226627  0.52743815  0.28496844    -0.70990
O1172       O  0.00231211  0.46482359  0.28678626    -0.71970
O1173       O  0.97112091  0.49606409  0.28625509    -0.60590
O1174       O  0.03351372  0.49606682  0.28518419    -0.69000
O1175       O  0.03402750  0.49704862  0.31942516    -0.68550
O1176       O  0.97175768  0.49704735  0.32049548    -0.59810
O1177       O  0.00289808  0.46613203  0.32104511    -0.72310
O1178       O  0.00285565  0.52809733  0.31923855    -0.71090
Cu1179     Cu  0.00228999  0.49607342  0.28456457     1.04560
Cu1180     Cu  0.00291403  0.49712979  0.32122538     1.04330
C1181       C  0.00250119  0.53751127  0.30194920     0.95210
C1182       C  0.00257368  0.45575766  0.30430665     0.94350
C1183       C  0.96169034  0.49648562  0.30355126     0.86490
C1184       C  0.04352314  0.49647320  0.30215944     0.92770
O1185       O  0.28002151  0.52592612  0.00462950    -0.70990
O1186       O  0.28019322  0.46336048  0.00462005    -0.71970
O1187       O  0.28120020  0.49465960  0.03574847    -0.60590
O1188       O  0.27935384  0.49463851  0.97340051    -0.69000
O1189       O  0.31364468  0.49473640  0.97272615    -0.68550
O1190       O  0.31547976  0.49475755  0.03449560    -0.59810
O1191       O  0.31447875  0.46349061  0.00365446    -0.72310
O1192       O  0.31430830  0.52599464  0.00366375    -0.71090
Cu1193     Cu  0.27896639  0.49464306  0.00462714     1.04560
Cu1194     Cu  0.31566183  0.49474847  0.00359052     1.04330
C1195       C  0.29714039  0.53573577  0.00420385     0.95210
C1196       C  0.29736590  0.45364729  0.00419257     0.94350
C1197       C  0.29872251  0.49471108  0.04481503     0.86490
C1198       C  0.29632732  0.49468581  0.96335176     0.92770
O1199       O  0.21944875  0.46277691  0.50679733    -0.70990
O1200       O  0.21716291  0.52503854  0.50675650    -0.71970
O1201       O  0.21915017  0.49401854  0.53790934    -0.60590
O1202       O  0.21738349  0.49390411  0.47572521    -0.69000
O1203       O  0.18311369  0.49267981  0.47677810    -0.68550
O1204       O  0.18487779  0.49279429  0.53870111    -0.59810
O1205       O  0.18287232  0.52370900  0.50768301    -0.72310
O1206       O  0.18515595  0.46166394  0.50772342    -0.71090
Cu1207     Cu  0.21950882  0.49396836  0.50676974     1.04560
Cu1208     Cu  0.18280645  0.49265394  0.50776348     1.04330
C1209       C  0.20261183  0.45250668  0.50722816     0.95210
C1210       C  0.19964098  0.53407175  0.50715647     0.94350
C1211       C  0.20223354  0.49348803  0.54801172     0.86490
C1212       C  0.19993731  0.49335621  0.46655872     0.92770
O1213       O  0.50241027  0.17735475  0.47481151    -0.70990
O1214       O  0.50229998  0.17745127  0.53635044    -0.71970
O1215       O  0.47166774  0.17655550  0.50549368    -0.60590
O1216       O  0.53306763  0.17823862  0.50561714    -0.69000
O1217       O  0.53236157  0.21278970  0.50557623    -0.68550
O1218       O  0.47059480  0.21109745  0.50545223    -0.59810
O1219       O  0.50140441  0.21198540  0.53648334    -0.72310
O1220       O  0.50151488  0.21189217  0.47458603    -0.71090
Cu1221     Cu  0.50240156  0.17619753  0.50557013     1.04560
Cu1222     Cu  0.50144168  0.21319802  0.50552418     1.04330
C1223       C  0.50194336  0.19454379  0.46507047     0.95210
C1224       C  0.50179762  0.19467402  0.54605538     0.94350
C1225       C  0.46152525  0.19351153  0.50544176     0.86490
C1226       C  0.54232436  0.19570452  0.50560469     0.92770
O1227       O  0.50171648  0.52595271  0.22473600    -0.70990
O1228       O  0.50172345  0.46335856  0.22525607    -0.71970
O1229       O  0.53294225  0.49466680  0.22584429    -0.60590
O1230       O  0.47050406  0.49463976  0.22415307    -0.69000
O1231       O  0.47148088  0.49435767  0.18991436    -0.68550
O1232       O  0.53374845  0.49438635  0.19159994    -0.59810
O1233       O  0.50262102  0.46320914  0.19099439    -0.72310
O1234       O  0.50261198  0.52556259  0.19047851    -0.71090
Cu1235     Cu  0.50169219  0.49466396  0.22620346     1.04560
Cu1236     Cu  0.50265165  0.49436551  0.18955162     1.04330
C1237       C  0.50215026  0.53552720  0.20749871     0.95210
C1238       C  0.50215678  0.45352059  0.20815856     0.94350
C1239       C  0.54310059  0.49453427  0.20895392     0.86490
C1240       C  0.46123514  0.49450278  0.20675193     0.92770
N1241       N  0.69847740  0.49486524  0.14403850    -0.25340
N1242       N  0.67855484  0.49495436  0.13972176    -0.33190
C1243       C  0.67603650  0.49522691  0.11916504     0.03010
C1244       C  0.69533055  0.49531765  0.11022347     0.09030
C1245       C  0.70928081  0.49508214  0.12631083    -0.04070
H1246       H  0.66127160  0.49541551  0.11136139     0.09700
H1247       H  0.72594887  0.49513710  0.12526371     0.10900
Cu1248     Cu  0.65599876  0.49487815  0.16216380     0.44170
Cu1249     Cu  0.70923056  0.49466117  0.17402574     0.41990
Cu1250     Cu  0.67101105  0.49493680  0.21625571     0.43880
N1251       N  0.63515509  0.49483997  0.18622097    -0.32720
N1252       N  0.64012503  0.49486326  0.20602920    -0.26980
C1253       C  0.62249277  0.49480024  0.21719503    -0.03080
C1254       C  0.60591645  0.49473429  0.20362265     0.09140
C1255       C  0.61452071  0.49476385  0.18422678     0.02940
H1256       H  0.62180042  0.49479166  0.23386529     0.10590
H1257       H  0.60639111  0.49472246  0.16964513     0.09670
N1258       N  0.70327975  0.49490375  0.22046918    -0.34170
N1259       N  0.71665281  0.49476519  0.20502439    -0.26350
C1260       C  0.73595319  0.49477913  0.21257726    -0.01590
C1261       C  0.73497399  0.49494071  0.23380096     0.07020
C1262       C  0.71397322  0.49501537  0.23836279     0.05110
H1263       H  0.74977569  0.49470204  0.20321272     0.10220
H1264       H  0.70694640  0.49514617  0.25348866     0.09050
N1265       N  0.80726015  0.49558433  0.37159399    -0.25340
N1266       N  0.82720559  0.49541284  0.37582568    -0.33190
C1267       C  0.82978899  0.49515376  0.39638567     0.03010
C1268       C  0.81051443  0.49515704  0.40539663     0.09030
C1269       C  0.79652471  0.49543472  0.38935654    -0.04070
H1270       H  0.84457739  0.49490820  0.40414313     0.09700
H1271       H  0.77986024  0.49544893  0.39045869     0.10900
Cu1272     Cu  0.84968563  0.49536718  0.35324568     0.44170
Cu1273     Cu  0.79620153  0.49578481  0.34172001     0.41990
Cu1274     Cu  0.83386460  0.49531540  0.29928868     0.43880
N1275       N  0.87015721  0.49539107  0.32881828    -0.32720
N1276       N  0.86484420  0.49538423  0.30909622    -0.26980
C1277       C  0.88225707  0.49553683  0.29760949    -0.03080
C1278       C  0.89906838  0.49564370  0.31086692     0.09140
C1279       C  0.89083061  0.49554269  0.33042796     0.02940
H1280       H  0.88263883  0.49562383  0.28092906     0.10590
H1281       H  0.89923387  0.49563825  0.34485345     0.09670
N1282       N  0.80160967  0.49540479  0.29528817    -0.34170
N1283       N  0.78835914  0.49561442  0.31082842    -0.26350
C1284       C  0.76899843  0.49561561  0.30341371    -0.01590
C1285       C  0.76983346  0.49539247  0.28217570     0.07020
C1286       C  0.79080149  0.49526420  0.27747494     0.05110
H1287       H  0.75524210  0.49574489  0.31287391     0.10220
H1288       H  0.79773698  0.49507396  0.26230829     0.09050
O1289       O  0.71772914  0.49595491  0.97619390    -0.70990
O1290       O  0.71868639  0.49589808  0.03819102    -0.71970
O1291       O  0.71710749  0.46483661  0.00712744    -0.60590
O1292       O  0.71938660  0.52713021  0.00717580    -0.69000
O1293       O  0.68507621  0.52815601  0.00768348    -0.68550
O1294       O  0.68280405  0.46623081  0.00763550    -0.59810
O1295       O  0.68438405  0.49711355  0.03848979    -0.72310
O1296       O  0.68342920  0.49716978  0.97689852    -0.71090
Cu1297     Cu  0.71947473  0.49592125  0.00716280     1.04560
Cu1298     Cu  0.68273685  0.49722497  0.00770499     1.04330
C1299       C  0.70036149  0.49649488  0.96690243     0.95210
C1300       C  0.70160522  0.49642010  0.04799467     0.94350
C1301       C  0.69955362  0.45584680  0.00731522     0.86490
C1302       C  0.70251138  0.53734880  0.00738002     0.92770
N1303       N  0.80157815  0.13037605  0.00487258    -0.25340
N1304       N  0.82150047  0.12602281  0.00487574    -0.33190
C1305       C  0.82397744  0.10532275  0.00522219     0.03010
C1306       C  0.80465324  0.09639357  0.00544893     0.09030
C1307       C  0.79074160  0.11257539  0.00521654    -0.04070
H1308       H  0.83872005  0.09742732  0.00539732     0.09700
H1309       H  0.77407127  0.11155435  0.00538141     0.10900
Cu1310     Cu  0.84410502  0.14855734  0.00471954     0.44170
Cu1311     Cu  0.79059292  0.16035124  0.00467427     0.41990
Cu1312     Cu  0.82838872  0.20272500  0.00496386     0.43880
N1313       N  0.86450300  0.17314412  0.00504695    -0.32720
N1314       N  0.85910299  0.19296668  0.00517151    -0.26980
C1315       C  0.87636347  0.20468038  0.00558286    -0.03080
C1316       C  0.89318206  0.19145130  0.00572292     0.09140
C1317       C  0.88516480  0.17167037  0.00537237     0.02940
H1318       H  0.87661549  0.22147987  0.00583478     0.10590
H1319       H  0.89368800  0.15721688  0.00543507     0.09670
N1320       N  0.79643658  0.20688307  0.00485442    -0.34170
N1321       N  0.78302248  0.19139029  0.00474164    -0.26350
C1322       C  0.76377367  0.19907224  0.00475068    -0.01590
C1323       C  0.76496664  0.22042133  0.00487541     0.07020
C1324       C  0.78593187  0.22493249  0.00493696     0.05110
H1325       H  0.74988684  0.18973323  0.00469568     0.10220
H1326       H  0.79309694  0.24010080  0.00505517     0.09050
N1327       N  0.69459101  0.35948803  0.00571287    -0.25340
N1328       N  0.67466885  0.36383904  0.00559773    -0.33190
C1329       C  0.67218852  0.38453925  0.00589886     0.03010
C1330       C  0.69151238  0.39346585  0.00622096     0.09030
C1331       C  0.70542488  0.37728736  0.00609123    -0.04070
H1332       H  0.65744548  0.39243594  0.00594199     0.09700
H1333       H  0.72209457  0.37830989  0.00630907     0.10900
Cu1334     Cu  0.65207857  0.34130066  0.00524809     0.44170
Cu1335     Cu  0.70559514  0.32952782  0.00550091     0.41990
Cu1336     Cu  0.66784992  0.28713836  0.00528677     0.43880
N1337       N  0.63171425  0.31669266  0.00526317    -0.32720
N1338       N  0.63712851  0.29687366  0.00530276    -0.26980
C1339       C  0.61987305  0.28514598  0.00536951    -0.03080
C1340       C  0.60304649  0.29836518  0.00537355     0.09140
C1341       C  0.61105082  0.31815135  0.00530462     0.02940
H1342       H  0.61962907  0.26834462  0.00541541     0.10590
H1343       H  0.60251649  0.33259838  0.00529720     0.09670
N1344       N  0.69980458  0.28300291  0.00526761    -0.34170
N1345       N  0.71320599  0.29850591  0.00534460    -0.26350
C1346       C  0.73246198  0.29084160  0.00530325    -0.01590
C1347       C  0.73128598  0.26949129  0.00519178     0.07020
C1348       C  0.71032375  0.26496325  0.00517241     0.05110
H1349       H  0.74634077  0.30019277  0.00534708     0.10220
H1350       H  0.70316953  0.24978971  0.00509327     0.09050
N1351       N  0.79921186  0.99449734  0.14392447    -0.25340
N1352       N  0.81890615  0.99458513  0.13847031    -0.33190
C1353       C  0.82029423  0.99435873  0.11780979     0.03010
C1354       C  0.80061062  0.99411266  0.10983141     0.09030
C1355       C  0.78752325  0.99420891  0.12669293    -0.04070
H1356       H  0.83463209  0.99434610  0.10925093     0.09700
H1357       H  0.77082514  0.99406320  0.12648538     0.10900
Cu1358     Cu  0.84353425  0.99490349  0.15873236     0.44170
Cu1359     Cu  0.78947414  0.99475218  0.17467261     0.41990
Cu1360     Cu  0.83173941  0.99576561  0.21207586     0.43880
N1361       N  0.86598180  0.99500176  0.18136929    -0.32720
N1362       N  0.86155368  0.99533740  0.20124773    -0.26980
C1363       C  0.87916894  0.99513897  0.21219954    -0.03080
C1364       C  0.89534721  0.99465491  0.19843117     0.09140
C1365       C  0.88658460  0.99458268  0.17904514     0.02940
H1366       H  0.88006681  0.99525808  0.22886271     0.10590
H1367       H  0.89453091  0.99418072  0.16437406     0.09670
N1368       N  0.80099108  0.99559192  0.21992381    -0.34170
N1369       N  0.78546321  0.99515904  0.20667890    -0.26350
C1370       C  0.76763872  0.99499528  0.21739321    -0.01590
C1371       C  0.77235997  0.99534285  0.23830600     0.07020
C1372       C  0.79358157  0.99572346  0.23923902     0.05110
H1373       H  0.75247974  0.99462372  0.21041841     0.10220
H1374       H  0.80302694  0.99601184  0.25300171     0.09050
N1375       N  0.69698133  0.99555464  0.36700445    -0.25340
N1376       N  0.67729528  0.99547972  0.37250357    -0.33190
C1377       C  0.67598031  0.99572367  0.39317803     0.03010
C1378       C  0.69569981  0.99596949  0.40109879     0.09030
C1379       C  0.70872154  0.99585340  0.38419643    -0.04070
H1380       H  0.66167239  0.99574579  0.40178640     0.09700
H1381       H  0.72542038  0.99598999  0.38434813     0.10900
Cu1382     Cu  0.65258863  0.99514464  0.35225192     0.44170
Cu1383     Cu  0.70676520  0.99526273  0.33628266     0.41990
Cu1384     Cu  0.66467809  0.99420975  0.29891066     0.43880
N1385       N  0.63024412  0.99496172  0.32943970    -0.32720
N1386       N  0.63482392  0.99459875  0.30959361    -0.26980
C1387       C  0.61730286  0.99463978  0.29849544    -0.03080
C1388       C  0.60100382  0.99505003  0.31211334     0.09140
C1389       C  0.60960946  0.99524208  0.33158271     0.02940
H1390       H  0.61654970  0.99440720  0.28182620     0.10590
H1391       H  0.60153288  0.99557385  0.34618410     0.09670
N1392       N  0.69540783  0.99436691  0.29104486    -0.34170
N1393       N  0.71091447  0.99481459  0.30430761    -0.26350
C1394       C  0.72875577  0.99496550  0.29361980    -0.01590
C1395       C  0.72405908  0.99459326  0.27270085     0.07020
C1396       C  0.70283869  0.99421164  0.27174015     0.05110
H1397       H  0.74390610  0.99534930  0.30061306     0.10220
H1398       H  0.69340969  0.99391032  0.25796654     0.09050
O1399       O  0.81331455  0.99271520  0.97656168    -0.70990
O1400       O  0.81120948  0.99266863  0.03832466    -0.71970
O1401       O  0.81109288  0.96167359  0.00731735    -0.60590
O1402       O  0.81337514  0.02361574  0.00745139    -0.69000
O1403       O  0.77908946  0.02500947  0.00632109    -0.68550
O1404       O  0.77680034  0.96271702  0.00618629    -0.59810
O1405       O  0.77693507  0.99388905  0.03740570    -0.72310
O1406       O  0.77904759  0.99393713  0.97522881    -0.71090
Cu1407     Cu  0.81343113  0.99261250  0.00746944     1.04560
Cu1408     Cu  0.77672664  0.99392365  0.00625758     1.04330
C1409       C  0.79657427  0.99340760  0.96622115     0.95210
C1410       C  0.79382792  0.99332845  0.04755912     0.94350
C1411       C  0.79366271  0.95248818  0.00665168     0.86490
C1412       C  0.79663555  0.03400226  0.00681056     0.92770
N1413       N  0.63805021  0.19272865  0.50652133    -0.25340
N1414       N  0.63369045  0.17269790  0.50664321    -0.33190
C1415       C  0.61313814  0.17020927  0.50637463     0.03010
C1416       C  0.60431702  0.18965167  0.50607292     0.09030
C1417       C  0.62038465  0.20365552  0.50617769    -0.04070
H1418       H  0.60527473  0.15538073  0.50639336     0.09700
H1419       H  0.61938167  0.22042897  0.50602342     0.10900
Cu1420     Cu  0.65594946  0.14997746  0.50704547     0.44170
Cu1421     Cu  0.66784138  0.20360954  0.50681871     0.41990
Cu1422     Cu  0.70978931  0.16521093  0.50714434     0.43880
N1423       N  0.68007758  0.12926532  0.50680756    -0.32720
N1424       N  0.69983684  0.13445281  0.50678381    -0.26980
C1425       C  0.71125490  0.11695105  0.50631154    -0.03080
C1426       C  0.69786094  0.10023535  0.50602744     0.09140
C1427       C  0.67832317  0.10852342  0.50635809     0.02940
H1428       H  0.72794676  0.11647281  0.50609351     0.10590
H1429       H  0.66384490  0.10014045  0.50616724     0.09670
N1430       N  0.71400471  0.19729421  0.50735516    -0.34170
N1431       N  0.69870853  0.21090278  0.50722350    -0.26350
C1432       C  0.70647382  0.23020936  0.50740777    -0.01590
C1433       C  0.72766551  0.22883297  0.50766705     0.07020
C1434       C  0.73200708  0.20771977  0.50762679     0.05110
H1435       H  0.69729846  0.24425011  0.50735507     0.10220
H1436       H  0.74702269  0.20039010  0.50778061     0.09050
N1437       N  0.80523819  0.35630913  0.50895181    -0.25340
N1438       N  0.82502669  0.36139911  0.50910275    -0.33190
C1439       C  0.82686814  0.38214305  0.50908082     0.03010
C1440       C  0.80736279  0.39052454  0.50890702     0.09030
C1441       C  0.79390212  0.37386761  0.50882827    -0.04070
H1442       H  0.84138153  0.39046630  0.50909101     0.09700
H1443       H  0.77721250  0.37442449  0.50861848     0.10900
Cu1444     Cu  0.84909926  0.34057903  0.50901613     0.44170
Cu1445     Cu  0.79501139  0.32563763  0.50875067     0.41990
Cu1446     Cu  0.83659347  0.28708432  0.50841237     0.43880
N1447       N  0.87110689  0.31758845  0.50826365    -0.32720
N1448       N  0.86647443  0.29762050  0.50801939    -0.26980
C1449       C  0.88396458  0.28644698  0.50724595    -0.03080
C1450       C  0.90022021  0.30021254  0.50699319     0.09140
C1451       C  0.89169002  0.31978375  0.50765407     0.02940
H1452       H  0.88471760  0.26966519  0.50679187     0.10590
H1453       H  0.89976478  0.33449640  0.50757881     0.09670
N1454       N  0.80572538  0.27991649  0.50846585    -0.34170
N1455       N  0.79049713  0.29359587  0.50854965    -0.26350
C1456       C  0.77244192  0.28325027  0.50845193    -0.01590
C1457       C  0.77669903  0.26211728  0.50829971     0.07020
C1458       C  0.79788191  0.26064838  0.50831756     0.05110
H1459       H  0.75745286  0.29063729  0.50847417     0.10220
H1460       H  0.80699984  0.24656997  0.50819229     0.09050
O1461       O  0.68356031  0.96639005  0.50347692    -0.70990
O1462       O  0.68591173  0.02852407  0.50363067    -0.71970
O1463       O  0.68560833  0.99744852  0.47262857    -0.60590
O1464       O  0.68357865  0.99738622  0.53433579    -0.69000
O1465       O  0.71784166  0.99612527  0.53569560    -0.68550
O1466       O  0.71988199  0.99619122  0.47344005    -0.59810
O1467       O  0.72019536  0.02732317  0.50471986    -0.72310
O1468       O  0.71784490  0.96508183  0.50456338    -0.71090
Cu1469     Cu  0.68347701  0.99749464  0.50346111     1.04560
Cu1470     Cu  0.72017491  0.99614431  0.50462874     1.04330
C1471       C  0.70033568  0.95603017  0.50410452     0.95210
C1472       C  0.70339439  0.03764168  0.50429573     0.94350
C1473       C  0.70295080  0.99677144  0.46333654     0.86490
C1474       C  0.70030091  0.99667416  0.54469066     0.92770
O1475       O  0.78732102  0.52572695  0.50824324    -0.70990
O1476       O  0.78499942  0.46345667  0.50817202    -0.71970
O1477       O  0.78629580  0.49462255  0.53919733    -0.60590
O1478       O  0.78629325  0.49466324  0.47713032    -0.69000
O1479       O  0.82059289  0.49341863  0.47739184    -0.68550
O1480       O  0.82059996  0.49337627  0.53893694    -0.59810
O1481       O  0.81930333  0.46229351  0.50817139    -0.72310
O1482       O  0.82162457  0.52441058  0.50824405    -0.71090
Cu1483     Cu  0.78498701  0.49465106  0.50817573     1.04560
Cu1484     Cu  0.82172065  0.49331613  0.50817675     1.04330
C1485       C  0.80484161  0.53477427  0.50831683     0.95210
C1486       C  0.80182049  0.45315572  0.50821795     0.94350
C1487       C  0.80354729  0.49407109  0.54871268     0.86490
C1488       C  0.80353857  0.49412243  0.46760420     0.92770
C1489       C  0.80123056  0.43092190  0.50838939    -0.11320
C1490       C  0.80266127  0.41227981  0.50862146    -0.12880
C1491       C  0.70262009  0.07850639  0.50528327    -0.11320
C1492       C  0.70401534  0.05986964  0.50472120    -0.12880
C1493       C  0.74190071  0.24665880  0.50791721    -0.14480
C1494       C  0.76242654  0.24432823  0.50809678    -0.29650
H1495       H  0.73516713  0.26209103  0.50792847     0.14550
H1496       H  0.76915572  0.22889502  0.50806066     0.15120
C1497       C  0.70103030  0.99631820  0.42265601    -0.11320
C1498       C  0.70313584  0.99657435  0.44115989    -0.12880
C1499       C  0.79351643  0.99352275  0.06972835    -0.11320
C1500       C  0.79541317  0.99377332  0.08825047    -0.12880
C1501       C  0.75851038  0.99525760  0.25637645    -0.14480
C1502       C  0.73792044  0.99467037  0.25464158    -0.29650
H1503       H  0.76561334  0.99567307  0.27153286     0.14550
H1504       H  0.73081932  0.99425306  0.23948469     0.15120
C1505       C  0.79774254  0.05615435  0.00649492    -0.11320
C1506       C  0.80016487  0.07465372  0.00604394    -0.12880
C1507       C  0.74710031  0.23461100  0.00496239    -0.14480
C1508       C  0.74915976  0.25530995  0.00510624    -0.29650
H1509       H  0.73183244  0.22767358  0.00490664     0.14550
H1510       H  0.76442723  0.26224883  0.00515821     0.15120
C1511       C  0.69600714  0.41520239  0.00671203    -0.11320
C1512       C  0.69844678  0.43369890  0.00706607    -0.12880
C1513       C  0.80616013  0.49474911  0.42708058    -0.11320
C1514       C  0.80400256  0.49440880  0.44552287    -0.12880
C1515       C  0.69966159  0.49575975  0.08854330    -0.11320
C1516       C  0.70153875  0.49612086  0.07007485    -0.12880
C1517       C  0.75314525  0.49503370  0.24770356    -0.14480
C1518       C  0.75160703  0.49529180  0.26833600    -0.29650
H1519       H  0.76829399  0.49489761  0.24055711     0.14550
H1520       H  0.73646266  0.49543561  0.27549357     0.15120
C1521       C  0.56539549  0.49457437  0.20934086    -0.11320
C1522       C  0.58404670  0.49463875  0.20804227    -0.12880
C1523       C  0.56431446  0.19591192  0.50565751    -0.11320
C1524       C  0.58274222  0.19408368  0.50579572    -0.12880
C1525       C  0.92082388  0.49597269  0.30597584    -0.11320
C1526       C  0.93941345  0.49624992  0.30407459    -0.12880
C1527       C  0.30250054  0.49470041  0.08539305    -0.11320
C1528       C  0.29984427  0.49470955  0.06696126    -0.12880
C1529       C  0.42033344  0.49464186  0.20410914    -0.11320
C1530       C  0.43894110  0.49454853  0.20599731    -0.12880
C1531       C  0.06581180  0.49617570  0.30198022    -0.11320
C1532       C  0.08443417  0.49580367  0.30356547    -0.12880
C1533       C  0.19723920  0.49395126  0.42588207    -0.11320
C1534       C  0.19909322  0.49361027  0.44440510    -0.12880
C1535       C  0.25371400  0.49498948  0.26648475    -0.14480
C1536       C  0.25197461  0.49462075  0.24583718    -0.29650
H1537       H  0.26893256  0.49522771  0.27348926     0.14550
H1538       H  0.23674326  0.49437623  0.23886832     0.15120
C1539       C  0.93327307  0.19851227  0.00675045    -0.11320
C1540       C  0.91475722  0.19661435  0.00630893    -0.12880
C1541       C  0.93531777  0.99379363  0.20566186    -0.11320
C1542       C  0.91693122  0.99416578  0.20314053    -0.12880
C1543       C  0.00220087  0.41505425  0.30823563    -0.11320
C1544       C  0.00242960  0.43354581  0.30547450    -0.12880
C1545       C  0.99646170  0.19930217  0.07004287    -0.11320
C1546       C  0.99668878  0.19754870  0.08857602    -0.12880
C1547       C  0.99769851  0.05640070  0.20433370    -0.11320
C1548       C  0.99754747  0.07494778  0.20214679    -0.12880
C1549       C  0.99825943  0.23462068  0.25678330    -0.14480
C1550       C  0.99843159  0.25535559  0.25501678    -0.29650
H1551       H  0.99834255  0.22750761  0.27195537     0.14550
H1552       H  0.99833979  0.26246780  0.23984446     0.15120
C1553       C  0.19995052  0.99509942  0.06821056    -0.11320
C1554       C  0.19827955  0.99506523  0.08683316    -0.12880
C1555       C  0.07896450  0.99416277  0.20379699    -0.11320
C1556       C  0.06055859  0.99384763  0.20627335    -0.12880
C1557       C  0.23781329  0.99480871  0.25596933    -0.14480
C1558       C  0.25845144  0.99477947  0.25450769    -0.29650
H1559       H  0.23060702  0.99480974  0.27108237     0.14550
H1560       H  0.26565392  0.99477691  0.23939313     0.15120
C1561       C  0.29917032  0.41260481  0.00461645    -0.11320
C1562       C  0.29754547  0.43129602  0.00438494    -0.12880
C1563       C  0.19764520  0.07721068  0.00478932    -0.11320
C1564       C  0.19948493  0.05853439  0.00486665    -0.12880
C1565       C  0.07737034  0.19330054  0.00624924    -0.11320
C1566       C  0.05889680  0.19547315  0.00668818    -0.12880
C1567       C  0.23775144  0.24603547  0.00487409    -0.14480
C1568       C  0.25835674  0.24383691  0.00472413    -0.29650
H1569       H  0.23102967  0.26147328  0.00500792     0.14550
H1570       H  0.26507600  0.22839826  0.00459226     0.15120
C1571       C  0.29716353  0.99578041  0.44215923    -0.11320
C1572       C  0.29873059  0.99551363  0.42352964    -0.12880
C1573       C  0.92169068  0.29541475  0.50600500    -0.11320
C1574       C  0.94004010  0.29304507  0.50529569    -0.12880
C1575       C  0.00207705  0.29023523  0.44162836    -0.11320
C1576       C  0.00186634  0.29228587  0.42310896    -0.12880
C1577       C  0.29747439  0.07778511  0.50528939    -0.11320
C1578       C  0.29530712  0.05921990  0.50530049    -0.12880
C1579       C  0.43955332  0.19260843  0.50539610    -0.11320
C1580       C  0.42116902  0.19037389  0.50542714    -0.12880
C1581       C  0.08316349  0.29401348  0.50526529    -0.11320
C1582       C  0.06479036  0.29174882  0.50487648    -0.12880
C1583       C  0.20164898  0.41165530  0.50695204    -0.11320
C1584       C  0.20313955  0.43028561  0.50710418    -0.12880
C1585       C  0.24256966  0.24403021  0.50594421    -0.14480
C1586       C  0.26310132  0.24628507  0.50619544    -0.29650
H1587       H  0.23577332  0.22863019  0.50573398     0.14550
H1588       H  0.26992417  0.26167874  0.50641561     0.15120
C1589       C  0.56294930  0.29131695  0.00542091    -0.11320
C1590       C  0.58146970  0.29319538  0.00541994    -0.12880
C1591       C  0.41885524  0.29625338  0.00531318    -0.11320
C1592       C  0.43733836  0.29414943  0.00534249    -0.12880
C1593       C  0.56110191  0.99526969  0.30435384    -0.11320
C1594       C  0.57945729  0.99520359  0.30716126    -0.12880
C1595       C  0.43582449  0.99505025  0.30318597    -0.11320
C1596       C  0.41743323  0.99498675  0.30581929    -0.12880
C1597       C  0.49972492  0.29576080  0.08623135    -0.11320
C1598       C  0.49988725  0.29333814  0.06784948    -0.12880
C1599       C  0.50186679  0.41255463  0.20618265    -0.11320
C1600       C  0.50205654  0.43120279  0.20805646    -0.12880
C1601       C  0.49854061  0.05843186  0.30218000    -0.11320
C1602       C  0.49868243  0.07709294  0.30380402    -0.12880
C1603       C  0.50181334  0.19415273  0.44304908    -0.11320
C1604       C  0.50157316  0.19209883  0.42462966    -0.12880
C1605       C  0.49976572  0.24395377  0.24531683    -0.14480
C1606       C  0.50013757  0.24600911  0.26586884    -0.29650
H1607       H  0.49941779  0.22859408  0.23842836     0.14550
H1608       H  0.50047638  0.26136628  0.27276665     0.15120
C1609       C  0.43915301  0.79448691  0.50526231    -0.11320
C1610       C  0.42055100  0.79602443  0.50535997    -0.12880
C1611       C  0.30287175  0.91479556  0.50558930    -0.11320
C1612       C  0.30012088  0.93326509  0.50553350    -0.12880
C1613       C  0.06579585  0.69927841  0.50630457    -0.11320
C1614       C  0.08439031  0.69775326  0.50634006    -0.12880
C1615       C  0.19866007  0.55624598  0.50694175    -0.11320
C1616       C  0.19669834  0.57481244  0.50668573    -0.12880
C1617       C  0.25373697  0.73384449  0.50615303    -0.14480
C1618       C  0.25216711  0.75459748  0.50627378    -0.29650
H1619       H  0.26886896  0.72660550  0.50602320     0.14550
H1620       H  0.23702257  0.76180144  0.50639772     0.15120
C1621       C  0.00215721  0.69543228  0.42548284    -0.11320
C1622       C  0.00241766  0.69830798  0.44381411    -0.12880
C1623       C  0.00195897  0.57836271  0.30429469    -0.11320
C1624       C  0.00227185  0.55979260  0.30191528    -0.12880
C1625       C  0.99755221  0.79613733  0.08634899    -0.11320
C1626       C  0.99775942  0.79399923  0.06794845    -0.12880
C1627       C  0.99779740  0.93037586  0.20862291    -0.11320
C1628       C  0.99767090  0.91175659  0.20691735    -0.12880
C1629       C  0.99786305  0.74378330  0.24565987    -0.14480
C1630       C  0.99817810  0.74617480  0.26617915    -0.29650
H1631       H  0.99782900  0.72832876  0.23897744     0.14550
H1632       H  0.99819835  0.76162956  0.27286045     0.15120
C1633       C  0.29719412  0.55808066  0.00440526    -0.11320
C1634       C  0.29872323  0.57677557  0.00465469    -0.12880
C1635       C  0.07885107  0.79621050  0.00538963    -0.11320
C1636       C  0.06044638  0.79399117  0.00545463    -0.12880
C1637       C  0.20006809  0.93172820  0.00492436    -0.11320
C1638       C  0.19836968  0.91304506  0.00486850    -0.12880
C1639       C  0.23779128  0.74388788  0.00500549    -0.14480
C1640       C  0.25836814  0.74581762  0.00473425    -0.29650
H1641       H  0.23083136  0.72855481  0.00520796     0.14550
H1642       H  0.26532438  0.76115193  0.00452982     0.15120
C1643       C  0.43585370  0.69666039  0.00537918    -0.11320
C1644       C  0.41746040  0.69434211  0.00520598    -0.12880
C1645       C  0.50177477  0.79632965  0.42439705    -0.11320
C1646       C  0.50207595  0.79393445  0.44277901    -0.12880
C1647       C  0.49882580  0.91317686  0.30505649    -0.11320
C1648       C  0.49871412  0.93185060  0.30341376    -0.12880
C1649       C  0.49864282  0.69633945  0.06806843    -0.11320
C1650       C  0.49893364  0.69403853  0.08645689    -0.12880
C1651       C  0.50197369  0.57652180  0.20528708    -0.11320
C1652       C  0.50208188  0.55785868  0.20711234    -0.12880
C1653       C  0.49855082  0.74553286  0.24538038    -0.14480
C1654       C  0.50169084  0.74393472  0.26572432    -0.29650
H1655       H  0.49596215  0.76068054  0.23851045     0.14550
H1656       H  0.50427526  0.72878985  0.27260430     0.15120
C1657       C  0.29847274  0.49465946  0.92264524    -0.11320
C1658       C  0.29622822  0.49467563  0.94114827    -0.12880
C1659       C  0.44063203  0.49544190  0.80748335    -0.11320
C1660       C  0.42218718  0.49535851  0.80993362    -0.12880
C1661       C  0.06385928  0.49492590  0.70827028    -0.11320
C1662       C  0.08228544  0.49493332  0.70575790    -0.12880
C1663       C  0.20106404  0.49408870  0.58877666    -0.11320
C1664       C  0.20255561  0.49376157  0.57020526    -0.12880
C1665       C  0.24255210  0.49475941  0.75629059    -0.14480
C1666       C  0.26316677  0.49499396  0.75433874    -0.29650
H1667       H  0.23566536  0.49459345  0.77154400     0.14550
H1668       H  0.27008648  0.49516606  0.73909602     0.15120
C1669       C  0.29922649  0.99580414  0.58731787    -0.11320
C1670       C  0.29756204  0.99602221  0.56869091    -0.12880
C1671       C  0.05906424  0.99524885  0.80434044    -0.11320
C1672       C  0.07754475  0.99523701  0.80674180    -0.12880
C1673       C  0.19760154  0.99495580  0.92306696    -0.11320
C1674       C  0.19940784  0.99501097  0.94168147    -0.12880
C1675       C  0.25837180  0.99484076  0.75601492    -0.14480
C1676       C  0.23770743  0.99508162  0.75428447    -0.29650
H1677       H  0.26535238  0.99467187  0.77123400     0.14550
H1678       H  0.23072305  0.99524631  0.73906683     0.15120
C1679       C  0.00210937  0.29745835  0.58578130    -0.11320
C1680       C  0.00233745  0.29487737  0.56734686    -0.12880
C1681       C  0.00096686  0.41297706  0.70797453    -0.11320
C1682       C  0.00103415  0.43159625  0.71037160    -0.12880
C1683       C  0.99667500  0.07722867  0.80474288    -0.11320
C1684       C  0.99640580  0.05857783  0.80279804    -0.12880
C1685       C  0.99636729  0.19239241  0.92601786    -0.11320
C1686       C  0.99621401  0.19466914  0.94447330    -0.12880
C1687       C  0.99812637  0.24406578  0.74555504    -0.14480
C1688       C  0.99759382  0.24614322  0.76615212    -0.29650
H1689       H  0.99830564  0.22867304  0.73873267     0.14550
H1690       H  0.99740684  0.26153634  0.77297319     0.15120
C1691       C  0.43713668  0.99412848  0.70672041    -0.11320
C1692       C  0.41866566  0.99419815  0.70423299    -0.12880
C1693       C  0.49977163  0.29490503  0.92435960    -0.11320
C1694       C  0.49991236  0.29262921  0.94276970    -0.12880
C1695       C  0.50220868  0.41344662  0.80668911    -0.11320
C1696       C  0.50272723  0.43210417  0.80494236    -0.12880
C1697       C  0.49967186  0.07608214  0.70618234    -0.11320
C1698       C  0.49985525  0.05743096  0.70802518    -0.12880
C1699       C  0.50125914  0.19235977  0.58653577    -0.11320
C1700       C  0.50158193  0.19437094  0.56810065    -0.12880
C1701       C  0.50304849  0.24531852  0.74539959    -0.14480
C1702       C  0.49629098  0.24475327  0.76488604    -0.29650
H1703       H  0.50913794  0.25971580  0.73913040     0.14550
H1704       H  0.49019811  0.23034684  0.77113001     0.15120
C1705       C  0.00272115  0.69735337  0.56891965    -0.11320
C1706       C  0.00250954  0.69427246  0.58721654    -0.12880
C1707       C  0.00136280  0.57705772  0.70831244    -0.11320
C1708       C  0.00136324  0.55844237  0.71067484    -0.12880
C1709       C  0.99771937  0.79495650  0.94306161    -0.11320
C1710       C  0.99749580  0.79732892  0.92468964    -0.12880
C1711       C  0.99666211  0.91325435  0.80416909    -0.11320
C1712       C  0.99644224  0.93190489  0.80231306    -0.12880
C1713       C  0.99817521  0.74604039  0.74564577    -0.14480
C1714       C  0.99778599  0.74415690  0.76620288    -0.29650
H1715       H  0.99822251  0.76134579  0.73863970     0.14550
H1716       H  0.99772597  0.72885147  0.77320892     0.15120
C1717       C  0.69654967  0.99606090  0.58521685    -0.11320
C1718       C  0.69912837  0.99639329  0.56679839    -0.12880
C1719       C  0.58157358  0.99452294  0.70713123    -0.11320
C1720       C  0.56306128  0.99433673  0.70938161    -0.12880
C1721       C  0.80004720  0.99402543  0.92566923    -0.11320
C1722       C  0.79766998  0.99368842  0.94411239    -0.12880
C1723       C  0.91463334  0.99496504  0.80379179    -0.11320
C1724       C  0.93315532  0.99506288  0.80163468    -0.12880
C1725       C  0.74698786  0.99518962  0.76571657    -0.14480
C1726       C  0.74918026  0.99504296  0.74513291    -0.29650
H1727       H  0.73165559  0.99531565  0.77245337     0.14550
H1728       H  0.76451242  0.99492064  0.73839566     0.15120
C1729       C  0.70089408  0.57812419  0.00686912    -0.11320
C1730       C  0.70290179  0.55955496  0.00717458    -0.12880
C1731       C  0.57914045  0.69307114  0.00528345    -0.11320
C1732       C  0.56077223  0.69549643  0.00542824    -0.12880
C1733       C  0.91715314  0.79719950  0.00533143    -0.11320
C1734       C  0.93553773  0.79492004  0.00542975    -0.12880
C1735       C  0.79522730  0.91170858  0.00586985    -0.11320
C1736       C  0.79325765  0.93028106  0.00630315    -0.12880
C1737       C  0.75844324  0.74372080  0.00525767    -0.14480
C1738       C  0.73791321  0.74601048  0.00505054    -0.29650
H1739       H  0.76523742  0.72831901  0.00545938     0.14550
H1740       H  0.73112070  0.76141243  0.00483511     0.15120
C1741       C  0.69754530  0.49589238  0.92642064    -0.11320
C1742       C  0.69966251  0.49623492  0.94485233    -0.12880
C1743       C  0.58476558  0.49507859  0.80352321    -0.11320
C1744       C  0.56622913  0.49522168  0.80166022    -0.12880
C1745       C  0.80620756  0.49470522  0.58919106    -0.11320
C1746       C  0.80402371  0.49434790  0.57076756    -0.12880
C1747       C  0.91978294  0.49546071  0.71138192    -0.11320
C1748       C  0.93831618  0.49530551  0.71315951    -0.12880
C1749       C  0.75151651  0.49500434  0.74758802    -0.14480
C1750       C  0.75322109  0.49521533  0.76818675    -0.29650
H1751       H  0.73635699  0.49477826  0.74046484     0.14550
H1752       H  0.76837950  0.49544656  0.77531352     0.15120
C1753       C  0.69939804  0.93383939  0.50445973    -0.11320
C1754       C  0.69749806  0.91526258  0.50499117    -0.12880
C1755       C  0.56532554  0.79242637  0.50575201    -0.11320
C1756       C  0.58394545  0.79371747  0.50607224    -0.12880
C1757       C  0.80775442  0.57554267  0.50885773    -0.11320
C1758       C  0.80579455  0.55696634  0.50855952    -0.12880
C1759       C  0.92107705  0.69748356  0.50691650    -0.11320
C1760       C  0.93967728  0.69895362  0.50666723    -0.12880
C1761       C  0.75180639  0.73496247  0.50802689    -0.14480
C1762       C  0.75322588  0.75573760  0.50765742    -0.29650
H1763       H  0.73671339  0.72764421  0.50824009     0.14550
H1764       H  0.76832024  0.76305356  0.50748257     0.15120
C1765       C  0.49871479  0.69378003  0.92472106    -0.11320
C1766       C  0.49852413  0.69601032  0.94311534    -0.12880
C1767       C  0.50243684  0.57729615  0.80512046    -0.11320
C1768       C  0.50293186  0.55864882  0.80344462    -0.12880
C1769       C  0.50166975  0.79694736  0.58615103    -0.11320
C1770       C  0.50191365  0.79456595  0.56776988    -0.12880
C1771       C  0.49967147  0.91226135  0.70727445    -0.11320
C1772       C  0.49985263  0.93089516  0.70914014    -0.12880
C1773       C  0.50011636  0.74356551  0.74494817    -0.14480
C1774       C  0.49964392  0.74570003  0.76549098    -0.29650
H1775       H  0.50050004  0.72818619  0.73810279     0.14550
H1776       H  0.49926031  0.76108232  0.77232589     0.15120
loop_ 
_geom_bond_atom_site_label_1 
_geom_bond_atom_site_label_2 
_geom_bond_distance 
_geom_bond_site_symmetry_2 
_ccdc_geom_bond_type 
N1            N2   1.321       .  A
N1            C5   1.344       .  A
N1           Cu9   2.057       .  S
N2            C3   1.343       .  A
N2           Cu8   2.061       .  S
C3            C4   1.378       .  A
C3            H6   1.082       .  S
C4            C5   1.377       .  A
C4         C1769   1.430       .  S
C5            H7   1.082       .  S
Cu8          N11   2.061       .  S
Cu9          N19   2.058       .  S
Cu10         N12   2.086       .  S
Cu10         N18   2.087       .  S
N11          N12   1.323       .  A
N11          C15   1.342       .  A
N12          C13   1.349       .  A
C13          C14   1.383       .  A
C13          H16   1.082       .  S
C14          C15   1.375       .  A
C14        C1771   1.437       .  S
C15          H17   1.082       .  S
N18          N19   1.323       .  A
N18          C22   1.347       .  A
N19          C20   1.342       .  A
C20          C21   1.377       .  A
C20          H23   1.082       .  S
C21          C22   1.389       .  A
C21        C1773   1.475       .  S
C22          H24   1.081       .  S
N25          N26   1.323       .  A
N25          C29   1.349       .  A
N25         Cu33   2.088       .  S
N26          C27   1.342       .  A
N26         Cu32   2.060       .  S
C27          C28   1.375       .  A
C27          H30   1.082       .  S
C28          C29   1.383       .  A
C28        C1767   1.437       .  S
C29          H31   1.082       .  S
Cu32         N35   2.059       .  S
Cu33         N43   2.088       .  S
Cu34         N36   2.057       .  S
Cu34         N42   2.058       .  S
N35          N36   1.320       .  A
N35          C39   1.342       .  A
N36          C37   1.344       .  A
C37          C38   1.378       .  A
C37          H40   1.082       .  S
C38          C39   1.377       .  A
C38        C1765   1.429       .  S
C39          H41   1.082       .  S
N42          N43   1.323       .  A
N42          C46   1.341       .  A
N43          C44   1.347       .  A
C44          C45   1.389       .  A
C44          H47   1.081       .  S
C45          C46   1.376       .  A
C45        C1774   1.474       .  S
C46          H48   1.082       .  S
N49          N50   1.324       .  A
N49          C53   1.352       .  A
N49         Cu57   2.103       .  S
N50          C51   1.342       .  A
N50         Cu56   2.058       .  S
C51          C52   1.374       .  A
C51          H54   1.082       .  S
C52          C53   1.387       .  A
C52        C1759   1.441       .  S
C53          H55   1.082       .  S
Cu56         N59   2.057       .  S
Cu57         N67   2.103       .  S
Cu58         N60   2.064       .  S
Cu58         N66   2.065       .  S
N59          N60   1.320       .  A
N59          C63   1.342       .  A
N60          C61   1.345       .  A
C61          C62   1.380       .  A
C61          H64   1.082       .  S
C62          C63   1.377       .  A
C62        C1757   1.432       .  S
C63          H65   1.082       .  S
N66          N67   1.324       .  A
N66          C70   1.343       .  A
N67          C68   1.350       .  A
C68          C69   1.392       .  A
C68          H71   1.081       .  S
C69          C70   1.378       .  A
C69        C1761   1.481       .  S
C70          H72   1.082       .  S
N73          N74   1.324       .  A
N73          C77   1.352       .  A
N73         Cu81   2.104       .  S
N74          C75   1.342       .  A
N74         Cu80   2.057       .  S
C75          C76   1.374       .  A
C75          H78   1.082       .  S
C76          C77   1.388       .  A
C76        C1756   1.442       .  S
C77          H79   1.082       .  S
Cu80         N83   2.057       .  S
Cu81         N91   2.105       .  S
Cu82         N84   2.064       .  S
Cu82         N90   2.065       .  S
N83          N84   1.320       .  A
N83          C87   1.342       .  A
N84          C85   1.346       .  A
C85          C86   1.380       .  A
C85          H88   1.082       .  S
C86          C87   1.377       .  A
C86        C1754   1.432       .  S
C87          H89   1.082       .  S
N90          N91   1.324       .  A
N90          C94   1.343       .  A
N91          C92   1.350       .  A
C92          C93   1.392       .  A
C92          H95   1.081       .  S
C93          C94   1.377       .  A
C93        C1762   1.481       .  S
C94          H96   1.082       .  S
N97          N98   1.324       .  A
N97         C101   1.349       .  A
N97        Cu105   2.089       .  S
N98          C99   1.342       .  A
N98        Cu104   2.063       .  S
C99         C100   1.375       .  A
C99         H102   1.082       .  S
C100        C101   1.383       .  A
C100       C1747   1.437       .  S
C101        H103   1.082       .  S
Cu104       N107   2.063       .  S
Cu105       N115   2.090       .  S
Cu106       N108   2.060       .  S
Cu106       N114   2.061       .  S
N107        N108   1.321       .  A
N107        C111   1.343       .  A
N108        C109   1.345       .  A
C109        C110   1.378       .  A
C109        H112   1.082       .  S
C110        C111   1.379       .  A
C110       C1745   1.432       .  S
C111        H113   1.082       .  S
N114        N115   1.323       .  A
N114        C118   1.342       .  A
N115        C116   1.348       .  A
C116        C117   1.389       .  A
C116        H119   1.081       .  S
C117        C118   1.377       .  A
C117       C1749   1.477       .  S
C118        H120   1.082       .  S
N121        N122   1.324       .  A
N121        C125   1.350       .  A
N121       Cu129   2.090       .  S
N122        C123   1.342       .  A
N122       Cu128   2.064       .  S
C123        C124   1.376       .  A
C123        H126   1.082       .  S
C124        C125   1.384       .  A
C124       C1743   1.439       .  S
C125        H127   1.082       .  S
Cu128       N131   2.063       .  S
Cu129       N139   2.090       .  S
Cu130       N132   2.061       .  S
Cu130       N138   2.062       .  S
N131        N132   1.321       .  A
N131        C135   1.343       .  A
N132        C133   1.345       .  A
C133        C134   1.379       .  A
C133        H136   1.082       .  S
C134        C135   1.378       .  A
C134       C1741   1.432       .  S
C135        H137   1.082       .  S
N138        N139   1.323       .  A
N138        C142   1.342       .  A
N139        C140   1.348       .  A
C140        C141   1.389       .  A
C140        H143   1.081       .  S
C141        C142   1.378       .  A
C141       C1750   1.477       .  S
C142        H144   1.082       .  S
N145        N146   1.323       .  A
N145        C149   1.347       .  A
N145       Cu153   2.075       .  S
N146        C147   1.341       .  A
N146       Cu152   2.060       .  S
C147        C148   1.375       .  A
C147        H150   1.082       .  S
C148        C149   1.380       .  A
C148       C1735   1.432       .  S
C149        H151   1.082       .  S
Cu152       N155   2.059       .  S
Cu153       N163   2.076       .  S
Cu154       N156   2.052       .  S
Cu154       N162   2.053       .  S
N155        N156   1.321       .  A
N155        C159   1.342       .  A
N156        C157   1.343       .  A
C157        C158   1.376       .  A
C157        H160   1.082       .  S
C158        C159   1.377       .  A
C158       C1733   1.427       .  S
C159        H161   1.082       .  S
N162        N163   1.322       .  A
N162        C166   1.341       .  A
N163        C164   1.344       .  A
C164        C165   1.387       .  A
C164        H167   1.081       .  S
C165        C166   1.376       .  A
C165       C1737   1.470       .  S
C166        H168   1.082       .  S
N169        N170   1.323       .  A
N169        C173   1.347       .  A
N169       Cu177   2.075       .  S
N170        C171   1.341       .  A
N170       Cu176   2.061       .  S
C171        C172   1.375       .  A
C171        H174   1.082       .  S
C172        C173   1.380       .  A
C172       C1729   1.432       .  S
C173        H175   1.082       .  S
Cu176       N179   2.060       .  S
Cu177       N187   2.076       .  S
Cu178       N180   2.052       .  S
Cu178       N186   2.052       .  S
N179        N180   1.321       .  A
N179        C183   1.342       .  A
N180        C181   1.343       .  A
C181        C182   1.376       .  A
C181        H184   1.082       .  S
C182        C183   1.378       .  A
C182       C1731   1.428       .  S
C183        H185   1.082       .  S
N186        N187   1.322       .  A
N186        C190   1.341       .  A
N187        C188   1.345       .  A
C188        C189   1.387       .  A
C188        H191   1.081       .  S
C189        C190   1.376       .  A
C189       C1738   1.470       .  S
C190        H192   1.082       .  S
N193        N194   1.322       .  A
N193        C197   1.346       .  A
N193       Cu201   2.070       .  S
N194        C195   1.344       .  A
N194       Cu200   2.069       .  S
C195        C196   1.379       .  A
C195        H198   1.082       .  S
C196        C197   1.380       .  A
C196       C1721   1.437       .  S
C197        H199   1.082       .  S
Cu200       N203   2.070       .  S
Cu201       N211   2.071       .  S
Cu202       N204   2.090       .  S
Cu202       N210   2.090       .  S
N203        N204   1.324       .  A
N203        C207   1.344       .  A
N204        C205   1.350       .  A
C205        C206   1.384       .  A
C205        H208   1.082       .  S
C206        C207   1.377       .  A
C206       C1723   1.441       .  S
C207        H209   1.082       .  S
N210        N211   1.323       .  A
N210        C214   1.348       .  A
N211        C212   1.344       .  A
C212        C213   1.380       .  A
C212        H215   1.082       .  S
C213        C214   1.389       .  A
C213       C1725   1.480       .  S
C214        H216   1.081       .  S
N217        N218   1.322       .  A
N217        C221   1.346       .  A
N217       Cu225   2.069       .  S
N218        C219   1.345       .  A
N218       Cu224   2.071       .  S
C219        C220   1.380       .  A
C219        H222   1.082       .  S
C220        C221   1.380       .  A
C220       C1717   1.437       .  S
C221        H223   1.082       .  S
Cu224       N227   2.072       .  S
Cu225       N235   2.070       .  S
Cu226       N228   2.089       .  S
Cu226       N234   2.090       .  S
N227        N228   1.324       .  A
N227        C231   1.344       .  A
N228        C229   1.349       .  A
C229        C230   1.383       .  A
C229        H232   1.082       .  S
C230        C231   1.378       .  A
C230       C1719   1.441       .  S
C231        H233   1.082       .  S
N234        N235   1.323       .  A
N234        C238   1.348       .  A
N235        C236   1.344       .  A
C236        C237   1.380       .  A
C236        H239   1.082       .  S
C237        C238   1.389       .  A
C237       C1726   1.480       .  S
C238        H240   1.081       .  S
N241        N242   1.324       .  A
N241        C245   1.350       .  A
N241       Cu249   2.091       .  S
N242        C243   1.342       .  A
N242       Cu248   2.063       .  S
C243        C244   1.375       .  A
C243        H246   1.082       .  S
C244        C245   1.384       .  A
C244       C1711   1.439       .  S
C245        H247   1.082       .  S
Cu248       N251   2.062       .  S
Cu249       N259   2.091       .  S
Cu250       N252   2.054       .  S
Cu250       N258   2.054       .  S
N251        N252   1.320       .  A
N251        C255   1.343       .  A
N252        C253   1.344       .  A
C253        C254   1.377       .  A
C253        H256   1.082       .  S
C254        C255   1.378       .  A
C254       C1710   1.429       .  S
C255        H257   1.082       .  S
N258        N259   1.323       .  A
N258        C262   1.341       .  A
N259        C260   1.347       .  A
C260        C261   1.390       .  A
C260        H263   1.081       .  S
C261        C262   1.376       .  A
C261       C1714   1.475       .  S
C262        H264   1.082       .  S
N265        N266   1.324       .  A
N265        C269   1.349       .  A
N265       Cu273   2.090   1_455  S
N266        C267   1.344       .  A
N266       Cu272   2.074       .  S
C267        C268   1.378       .  A
C267        H270   1.082       .  S
C268        C269   1.383       .  A
C268       C1707   1.441       .  S
C269        H271   1.082       .  S
Cu272       N275   2.073       .  S
Cu273       N283   2.090       .  S
Cu274       N276   2.052       .  S
Cu274       N282   2.053   1_455  S
N275        N276   1.321       .  A
N275        C279   1.345       .  A
N276        C277   1.343       .  A
C277        C278   1.376       .  A
C277        H280   1.082       .  S
C278        C279   1.381       .  A
C278       C1706   1.432       .  S
C279        H281   1.082       .  S
N282        N283   1.322       .  A
N282        C286   1.341       .  A
N283        C284   1.347       .  A
C284        C285   1.390       .  A
C284        H287   1.081       .  S
C285        C286   1.376       .  A
C285       C1713   1.475       .  S
C286        H288   1.082       .  S
N289        N290   1.320       .  A
N289        C293   1.345       .  A
N289       Cu297   2.060       .  S
N290        C291   1.342       .  A
N290       Cu296   2.059       .  S
C291        C292   1.377       .  A
C291        H294   1.082       .  S
C292        C293   1.379       .  A
C292       C1699   1.431       .  S
C293        H295   1.082       .  S
Cu296       N299   2.060       .  S
Cu297       N307   2.061       .  S
Cu298       N300   2.098       .  S
Cu298       N306   2.100       .  S
N299        N300   1.324       .  A
N299        C303   1.342       .  A
N300        C301   1.350       .  A
C301        C302   1.385       .  A
C301        H304   1.082       .  S
C302        C303   1.375       .  A
C302       C1697   1.439       .  S
C303        H305   1.082       .  S
N306        N307   1.324       .  A
N306        C310   1.350       .  A
N307        C308   1.341       .  A
C308        C309   1.375       .  A
C308        H311   1.082       .  S
C309        C310   1.392       .  A
C309       C1701   1.477       .  S
C310        H312   1.082       .  S
N313        N314   1.324       .  A
N313        C317   1.350       .  A
N313       Cu321   2.099       .  S
N314        C315   1.343       .  A
N314       Cu320   2.061       .  S
C315        C316   1.375       .  A
C315        H318   1.082       .  S
C316        C317   1.384       .  A
C316       C1695   1.439       .  S
C317        H319   1.082       .  S
Cu320       N323   2.061       .  S
Cu321       N331   2.100       .  S
Cu322       N324   2.059       .  S
Cu322       N330   2.059       .  S
N323        N324   1.320       .  A
N323        C327   1.342       .  A
N324        C325   1.345       .  A
C325        C326   1.379       .  A
C325        H328   1.082       .  S
C326        C327   1.378       .  A
C326       C1693   1.432       .  S
C327        H329   1.082       .  S
N330        N331   1.324       .  A
N330        C334   1.341       .  A
N331        C332   1.351       .  A
C332        C333   1.392       .  A
C332        H335   1.082       .  S
C333        C334   1.374       .  A
C333       C1702   1.477       .  S
C334        H336   1.082       .  S
O337       Cu345   2.024       .  S
O337        C347   1.278       .  A
O338       Cu345   2.023       .  S
O338        C348   1.278       .  A
O339       Cu345   2.013       .  S
O339        C349   1.276       .  A
O340       Cu345   2.014   1_545  S
O340        C350   1.277       .  A
O341       Cu346   2.009   1_545  S
O341        C350   1.277       .  A
O342       Cu346   2.008       .  S
O342        C349   1.277       .  A
O343       Cu346   2.004       .  S
O343        C348   1.275       .  A
O344       Cu346   2.005       .  S
O344        C347   1.276       .  A
Cu345      Cu346   2.379       .  S
C347       C1720   1.439       .  S
C348       C1691   1.438       .  S
C349       C1772   1.435       .  S
C350       C1698   1.437       .  S
N351        N352   1.324       .  A
N351        C355   1.350       .  A
N351       Cu359   2.092       .  S
N352        C353   1.343       .  A
N352       Cu358   2.064       .  S
C353        C354   1.376       .  A
C353        H356   1.082       .  S
C354        C355   1.384       .  A
C354       C1683   1.440       .  S
C355        H357   1.082       .  S
Cu358       N361   2.064       .  S
Cu359       N369   2.093       .  S
Cu360       N362   2.071       .  S
Cu360       N368   2.072       .  S
N361        N362   1.321       .  A
N361        C365   1.344       .  A
N362        C363   1.346       .  A
C363        C364   1.381       .  A
C363        H366   1.082       .  S
C364        C365   1.378       .  A
C364       C1685   1.436       .  S
C365        H367   1.082       .  S
N368        N369   1.324       .  A
N368        C372   1.344       .  A
N369        C370   1.349       .  A
C370        C371   1.390       .  A
C370        H373   1.081       .  S
C371        C372   1.380       .  A
C371       C1688   1.481       .  S
C372        H374   1.082       .  S
N375        N376   1.324       .  A
N375        C379   1.350       .  A
N375       Cu383   2.092   1_455  S
N376        C377   1.344       .  A
N376       Cu382   2.072       .  S
C377        C378   1.378       .  A
C377        H380   1.082       .  S
C378        C379   1.384       .  A
C378       C1681   1.442       .  S
C379        H381   1.082   1_455  S
Cu382       N385   2.072       .  S
Cu383       N393   2.092       .  S
Cu384       N386   2.071       .  S
Cu384       N392   2.072   1_455  S
N385        N386   1.322       .  A
N385        C389   1.345       .  A
N386        C387   1.347       .  A
C387        C388   1.381       .  A
C387        H390   1.082       .  S
C388        C389   1.380       .  A
C388       C1679   1.439       .  S
C389        H391   1.082       .  S
N392        N393   1.323       .  A
N392        C396   1.344       .  A
N393        C394   1.349       .  A
C394        C395   1.390       .  A
C394        H397   1.081       .  S
C395        C396   1.380       .  A
C395       C1687   1.481       .  S
C396        H398   1.082       .  S
N399        N400   1.321       .  A
N399        C403   1.347       .  A
N399       Cu407   2.074       .  S
N400        C401   1.345       .  A
N400       Cu406   2.071       .  S
C401        C402   1.380       .  A
C401        H404   1.082       .  S
C402        C403   1.382       .  A
C402       C1672   1.439       .  S
C403        H405   1.082       .  S
Cu406       N409   2.071       .  S
Cu407       N417   2.075       .  S
Cu408       N410   2.109       .  S
Cu408       N416   2.110       .  S
N409        N410   1.325       .  A
N409        C413   1.344       .  A
N410        C411   1.353       .  A
C411        C412   1.388       .  A
C411        H414   1.082       .  S
C412        C413   1.377       .  A
C412       C1673   1.448       .  S
C413        H415   1.082       .  S
N416        N417   1.324       .  A
N416        C420   1.352       .  A
N417        C418   1.344       .  A
C418        C419   1.380       .  A
C418        H421   1.082       .  S
C419        C420   1.393       .  A
C419       C1676   1.486       .  S
C420        H422   1.081       .  S
N423        N424   1.321       .  A
N423        C427   1.347       .  A
N423       Cu431   2.073       .  S
N424        C425   1.345       .  A
N424       Cu430   2.071       .  S
C425        C426   1.380       .  A
C425        H428   1.082       .  S
C426        C427   1.382       .  A
C426       C1692   1.440       .  S
C427        H429   1.082       .  S
Cu430       N433   2.071       .  S
Cu431       N441   2.074       .  S
Cu432       N434   2.110       .  S
Cu432       N440   2.110       .  S
N433        N434   1.325       .  A
N433        C437   1.344       .  A
N434        C435   1.353       .  A
C435        C436   1.388       .  A
C435        H438   1.082       .  S
C436        C437   1.377       .  A
C436       C1669   1.448       .  S
C437        H439   1.082       .  S
N440        N441   1.324       .  A
N440        C444   1.352       .  A
N441        C442   1.344       .  A
C442        C443   1.380       .  A
C442        H445   1.082       .  S
C443        C444   1.393       .  A
C443       C1675   1.486       .  S
C444        H446   1.081       .  S
O447       Cu455   2.023       .  S
O447        C457   1.278       .  A
O448       Cu455   2.022   1_455  S
O448        C458   1.278       .  A
O449       Cu455   2.016       .  S
O449        C459   1.277       .  A
O450       Cu455   2.016   1_545  S
O450        C460   1.277       .  A
O451       Cu456   2.011   1_545  S
O451        C460   1.277       .  A
O452       Cu456   2.010       .  S
O452        C459   1.277       .  A
O453       Cu456   2.005   1_455  S
O453        C458   1.276       .  A
O454       Cu456   2.006       .  S
O454        C457   1.276       .  A
Cu455      Cu456   2.379       .  S
C457       C1724   1.439       .  S
C458       C1671   1.438       .  S
C459       C1712   1.437       .  S
C460       C1684   1.438       .  S
N461        N462   1.324       .  A
N461        C465   1.350       .  A
N461       Cu469   2.096       .  S
N462        C463   1.343       .  A
N462       Cu468   2.065       .  S
C463        C464   1.376       .  A
C463        H466   1.082       .  S
C464        C465   1.385       .  A
C464       C1663   1.441       .  S
C465        H467   1.082       .  S
Cu468       N471   2.064       .  S
Cu469       N479   2.096       .  S
Cu470       N472   2.066       .  S
Cu470       N478   2.067       .  S
N471        N472   1.321       .  A
N471        C475   1.343       .  A
N472        C473   1.346       .  A
C473        C474   1.380       .  A
C473        H476   1.082       .  S
C474        C475   1.379       .  A
C474       C1662   1.435       .  S
C475        H477   1.082       .  S
N478        N479   1.324       .  A
N478        C482   1.342       .  A
N479        C480   1.350       .  A
C480        C481   1.390       .  A
C480        H483   1.081       .  S
C481        C482   1.378       .  A
C481       C1665   1.479       .  S
C482        H484   1.082       .  S
N485        N486   1.322       .  A
N485        C489   1.346       .  A
N485       Cu493   2.068       .  S
N486        C487   1.345       .  A
N486       Cu492   2.069       .  S
C487        C488   1.379       .  A
C487        H490   1.082       .  S
C488        C489   1.380       .  A
C488       C1660   1.436       .  S
C489        H491   1.082       .  S
Cu492       N495   2.070       .  S
Cu493       N503   2.069       .  S
Cu494       N496   2.092       .  S
Cu494       N502   2.093       .  S
N495        N496   1.324       .  A
N495        C499   1.343       .  A
N496        C497   1.350       .  A
C497        C498   1.384       .  A
C497        H500   1.082       .  S
C498        C499   1.377       .  A
C498       C1657   1.441       .  S
C499        H501   1.082       .  S
N502        N503   1.323       .  A
N502        C506   1.348       .  A
N503        C504   1.344       .  A
C504        C505   1.379       .  A
C504        H507   1.082       .  S
C505        C506   1.390       .  A
C505       C1666   1.481       .  S
C506        H508   1.081       .  S
O509       Cu517   2.007       .  S
O509        C519   1.276       .  A
O510       Cu517   2.008       .  S
O510        C520   1.276       .  A
O511       Cu517   2.005   1_655  S
O511        C521   1.276       .  A
O512       Cu517   2.003       .  S
O512        C522   1.276       .  A
O513       Cu518   2.014       .  S
O513        C522   1.277       .  A
O514       Cu518   2.016   1_655  S
O514        C521   1.277       .  A
O515       Cu518   2.024       .  S
O515        C520   1.278       .  A
O516       Cu518   2.023       .  S
O516        C519   1.278       .  A
Cu517      Cu518   2.379       .  S
C519       C1708   1.439       .  S
C520       C1682   1.440       .  S
C521       C1748   1.436       .  S
C522       C1661   1.434       .  S
O523       Cu531   2.008       .  S
O523        C533   1.277       .  A
O524       Cu531   2.010       .  S
O524        C534   1.277       .  A
O525       Cu531   2.004       .  S
O525        C535   1.276       .  A
O526       Cu531   2.002       .  S
O526        C536   1.275       .  A
O527       Cu532   2.017       .  S
O527        C536   1.277       .  A
O528       Cu532   2.020       .  S
O528        C535   1.277       .  A
O529       Cu532   2.014       .  S
O529        C534   1.277       .  A
O530       Cu532   2.013       .  S
O530        C533   1.276       .  A
Cu531      Cu532   2.379       .  S
C533       C1768   1.435       .  S
C534       C1696   1.437       .  S
C535       C1744   1.437       .  S
C536       C1659   1.435       .  S
N537        N538   1.324       .  A
N537        C541   1.350       .  A
N537       Cu545   2.096       .  S
N538        C539   1.343       .  A
N538       Cu544   2.062       .  S
C539        C540   1.375       .  A
C539        H542   1.082       .  S
C540        C541   1.385       .  A
C540       C1651   1.440       .  S
C541        H543   1.082       .  S
Cu544       N547   2.061       .  S
Cu545       N555   2.096       .  S
Cu546       N548   2.055       .  S
Cu546       N554   2.056       .  S
N547        N548   1.320       .  A
N547        C551   1.342       .  A
N548        C549   1.344       .  A
C549        C550   1.378       .  A
C549        H552   1.082       .  S
C550        C551   1.378       .  A
C550       C1650   1.430       .  S
C551        H553   1.082       .  S
N554        N555   1.323       .  A
N554        C558   1.341       .  A
N555        C556   1.349       .  A
C556        C557   1.391       .  A
C556        H559   1.081       .  S
C557        C558   1.375       .  A
C557       C1653   1.476       .  S
C558        H560   1.082       .  S
N561        N562   1.320       .  A
N561        C565   1.344       .  A
N561       Cu569   2.055       .  S
N562        C563   1.343       .  A
N562       Cu568   2.061       .  S
C563        C564   1.378       .  A
C563        H566   1.082       .  S
C564        C565   1.378       .  A
C564       C1645   1.431       .  S
C565        H567   1.082       .  S
Cu568       N571   2.061       .  S
Cu569       N579   2.056       .  S
Cu570       N572   2.096       .  S
Cu570       N578   2.096       .  S
N571        N572   1.324       .  A
N571        C575   1.342       .  A
N572        C573   1.350       .  A
C573        C574   1.385       .  A
C573        H576   1.082       .  S
C574        C575   1.375       .  A
C574       C1647   1.439       .  S
C575        H577   1.082       .  S
N578        N579   1.323       .  A
N578        C582   1.349       .  A
N579        C580   1.341       .  A
C580        C581   1.376       .  A
C580        H583   1.082       .  S
C581        C582   1.391       .  A
C581       C1654   1.477       .  S
C582        H584   1.081       .  S
O585       Cu593   2.008       .  S
O585        C595   1.276       .  A
O586       Cu593   2.007       .  S
O586        C596   1.276       .  A
O587       Cu593   2.007   1_556  S
O587        C597   1.276       .  A
O588       Cu593   2.008       .  S
O588        C598   1.276       .  A
O589       Cu594   1.994       .  S
O589        C598   1.275       .  A
O590       Cu594   1.994   1_556  S
O590        C597   1.275       .  A
O591       Cu594   1.990       .  S
O591        C596   1.274       .  A
O592       Cu594   1.991       .  S
O592        C595   1.274       .  A
Cu593      Cu594   2.383       .  S
C595       C1643   1.427       .  S
C596       C1732   1.426       .  S
C597       C1766   1.427       .  S
C598       C1649   1.428       .  S
N599        N600   1.320       .  A
N599        C603   1.344       .  A
N599       Cu607   2.054       .  S
N600        C601   1.342       .  A
N600       Cu606   2.060       .  S
C601        C602   1.378       .  A
C601        H604   1.082       .  S
C602        C603   1.377       .  A
C602       C1635   1.429       .  S
C603        H605   1.082       .  S
Cu606       N609   2.061       .  S
Cu607       N617   2.055       .  S
Cu608       N610   2.096       .  S
Cu608       N616   2.096       .  S
N609        N610   1.324       .  A
N609        C613   1.342       .  A
N610        C611   1.350       .  A
C611        C612   1.385       .  A
C611        H614   1.082       .  S
C612        C613   1.375       .  A
C612       C1638   1.440       .  S
C613        H615   1.082       .  S
N616        N617   1.323       .  A
N616        C620   1.348       .  A
N617        C618   1.341       .  A
C618        C619   1.376       .  A
C618        H621   1.082       .  S
C619        C620   1.391       .  A
C619       C1639   1.477       .  S
C620        H622   1.081       .  S
N623        N624   1.320       .  A
N623        C627   1.344       .  A
N623       Cu631   2.054       .  S
N624        C625   1.342       .  A
N624       Cu630   2.060       .  S
C625        C626   1.378       .  A
C625        H628   1.082       .  S
C626        C627   1.377       .  A
C626       C1644   1.429       .  S
C627        H629   1.082       .  S
Cu630       N633   2.061       .  S
Cu631       N641   2.055       .  S
Cu632       N634   2.096       .  S
Cu632       N640   2.097       .  S
N633        N634   1.324       .  A
N633        C637   1.342       .  A
N634        C635   1.350       .  A
C635        C636   1.385       .  A
C635        H638   1.082       .  S
C636        C637   1.375       .  A
C636       C1634   1.440       .  S
C637        H639   1.082       .  S
N640        N641   1.323       .  A
N640        C644   1.349       .  A
N641        C642   1.341       .  A
C642        C643   1.376       .  A
C642        H645   1.082       .  S
C643        C644   1.391       .  A
C643       C1640   1.476       .  S
C644        H646   1.081       .  S
N647        N648   1.321       .  A
N647        C651   1.344       .  A
N647       Cu655   2.057       .  S
N648        C649   1.342       .  A
N648       Cu654   2.058       .  S
C649        C650   1.377       .  A
C649        H652   1.082       .  S
C650        C651   1.377       .  A
C650       C1625   1.429       .  S
C651        H653   1.082       .  S
Cu654       N657   2.059       .  S
Cu655       N665   2.058       .  S
Cu656       N658   2.081       .  S
Cu656       N664   2.082       .  S
N657        N658   1.323       .  A
N657        C661   1.341       .  A
N658        C659   1.348       .  A
C659        C660   1.382       .  A
C659        H662   1.082       .  S
C660        C661   1.375       .  A
C660       C1628   1.434       .  S
C661        H663   1.082       .  S
N664        N665   1.323       .  A
N664        C668   1.346       .  A
N665        C666   1.342       .  A
C666        C667   1.377       .  A
C666        H669   1.082       .  S
C667        C668   1.388       .  A
C667       C1629   1.474       .  S
C668        H670   1.081       .  S
N671        N672   1.321       .  A
N671        C675   1.344       .  A
N671       Cu679   2.056   1_455  S
N672        C673   1.344       .  A
N672       Cu678   2.071       .  S
C673        C674   1.380       .  A
C673        H676   1.082       .  S
C674        C675   1.377       .  A
C674       C1621   1.432       .  S
C675        H677   1.082       .  S
Cu678       N681   2.071       .  S
Cu679       N689   2.056       .  S
Cu680       N682   2.080   1_655  S
Cu680       N688   2.080       .  S
N681        N682   1.324       .  A
N681        C685   1.343       .  A
N682        C683   1.348       .  A
C683        C684   1.381       .  A
C683        H686   1.082       .  S
C684        C685   1.377       .  A
C684       C1623   1.437       .  S
C685        H687   1.082       .  S
N688        N689   1.322       .  A
N688        C692   1.346       .  A
N689        C690   1.341       .  A
C690        C691   1.377       .  A
C690        H693   1.082       .  S
C691        C692   1.388       .  A
C691       C1630   1.473       .  S
C692        H694   1.081       .  S
O695       Cu703   1.991       .  S
O695        C705   1.274       .  A
O696       Cu703   1.992   1_455  S
O696        C706   1.274       .  A
O697       Cu703   1.993   1_556  S
O697        C707   1.274       .  A
O698       Cu703   1.993       .  S
O698        C708   1.274       .  A
O699       Cu704   2.007       .  S
O699        C708   1.276       .  A
O700       Cu704   2.008   1_556  S
O700        C707   1.276       .  A
O701       Cu704   2.007   1_455  S
O701        C706   1.276       .  A
O702       Cu704   2.005       .  S
O702        C705   1.276       .  A
Cu703      Cu704   2.383       .  S
C705       C1734   1.425       .  S
C706       C1636   1.427       .  S
C707       C1709   1.427       .  S
C708       C1626   1.427       .  S
N709        N710   1.320       .  A
N709        C713   1.345       .  A
N709       Cu717   2.062       .  S
N710        C711   1.342       .  A
N710       Cu716   2.057       .  S
C711        C712   1.377       .  A
C711        H714   1.082       .  S
C712        C713   1.379       .  A
C712       C1616   1.431       .  S
C713        H715   1.082       .  S
Cu716       N719   2.057       .  S
Cu717       N727   2.063       .  S
Cu718       N720   2.101       .  S
Cu718       N726   2.101       .  S
N719        N720   1.323       .  A
N719        C723   1.342       .  A
N720        C721   1.352       .  A
C721        C722   1.387       .  A
C721        H724   1.082       .  S
C722        C723   1.374       .  A
C722       C1614   1.441       .  S
C723        H725   1.082       .  S
N726        N727   1.324       .  A
N726        C730   1.349       .  A
N727        C728   1.343       .  A
C728        C729   1.377       .  A
C728        H731   1.082       .  S
C729        C730   1.391       .  A
C729       C1617   1.480       .  S
C730        H732   1.081       .  S
N733        N734   1.324       .  A
N733        C737   1.351       .  A
N733       Cu741   2.103       .  S
N734        C735   1.343       .  A
N734       Cu740   2.063       .  S
C735        C736   1.375       .  A
C735        H738   1.082       .  S
C736        C737   1.386       .  A
C736       C1610   1.442       .  S
C737        H739   1.082       .  S
Cu740       N743   2.062       .  S
Cu741       N751   2.103       .  S
Cu742       N744   2.057       .  S
Cu742       N750   2.058       .  S
N743        N744   1.320       .  A
N743        C747   1.343       .  A
N744        C745   1.344       .  A
C745        C746   1.378       .  A
C745        H748   1.082       .  S
C746        C747   1.378       .  A
C746       C1611   1.431       .  S
C747        H749   1.082       .  S
N750        N751   1.324       .  A
N750        C754   1.341       .  A
N751        C752   1.351       .  A
C752        C753   1.392       .  A
C752        H755   1.081       .  S
C753        C754   1.376       .  A
C753       C1618   1.479       .  S
C754        H756   1.082       .  S
O757       Cu765   2.019       .  S
O757        C767   1.278       .  A
O758       Cu765   2.018       .  S
O758        C768   1.278       .  A
O759       Cu765   2.015   1_655  S
O759        C769   1.276       .  A
O760       Cu765   2.015       .  S
O760        C770   1.276       .  A
O761       Cu766   2.018       .  S
O761        C770   1.278       .  A
O762       Cu766   2.018   1_655  S
O762        C769   1.278       .  A
O763       Cu766   1.988       .  S
O763        C768   1.273       .  A
O764       Cu766   1.988       .  S
O764        C767   1.273       .  A
Cu765      Cu766   2.380       .  S
C767       C1705   1.430       .  S
C768       C1622   1.430       .  S
C769       C1760   1.440       .  S
C770       C1613   1.440       .  S
O771       Cu779   2.011       .  S
O771        C781   1.277       .  A
O772       Cu779   2.012       .  S
O772        C782   1.277       .  A
O773       Cu779   2.017       .  S
O773        C783   1.277       .  A
O774       Cu779   2.017       .  S
O774        C784   1.277       .  A
O775       Cu780   2.018       .  S
O775        C784   1.278       .  A
O776       Cu780   2.018       .  S
O776        C783   1.278       .  A
O777       Cu780   1.992       .  S
O777        C782   1.274       .  A
O778       Cu780   1.991       .  S
O778        C781   1.274       .  A
Cu779      Cu780   2.380       .  S
C781       C1770   1.428       .  S
C782       C1646   1.429       .  S
C783       C1755   1.441       .  S
C784       C1609   1.441       .  S
N785        N786   1.320       .  A
N785        C789   1.344       .  A
N785       Cu793   2.058       .  S
N786        C787   1.342       .  A
N786       Cu792   2.059       .  S
C787        C788   1.377       .  A
C787        H790   1.082       .  S
C788        C789   1.378       .  A
C788       C1604   1.430       .  S
C789        H791   1.082       .  S
Cu792       N795   2.059       .  S
Cu793       N803   2.058       .  S
Cu794       N796   2.089       .  S
Cu794       N802   2.089       .  S
N795        N796   1.323       .  A
N795        C799   1.341       .  A
N796        C797   1.349       .  A
C797        C798   1.384       .  A
C797        H800   1.082       .  S
C798        C799   1.375       .  A
C798       C1602   1.437       .  S
C799        H801   1.082       .  S
N802        N803   1.323       .  A
N802        C806   1.347       .  A
N803        C804   1.342       .  A
C804        C805   1.377       .  A
C804        H807   1.082       .  S
C805        C806   1.389       .  A
C805       C1606   1.475       .  S
C806        H808   1.081       .  S
N809        N810   1.324       .  A
N809        C813   1.349       .  A
N809       Cu817   2.089       .  S
N810        C811   1.342       .  A
N810       Cu816   2.064       .  S
C811        C812   1.376       .  A
C811        H814   1.082       .  S
C812        C813   1.384       .  A
C812       C1599   1.438       .  S
C813        H815   1.082       .  S
Cu816       N819   2.063       .  S
Cu817       N827   2.089       .  S
Cu818       N820   2.056       .  S
Cu818       N826   2.057       .  S
N819        N820   1.321       .  A
N819        C823   1.343       .  A
N820        C821   1.344       .  A
C821        C822   1.378       .  A
C821        H824   1.082       .  S
C822        C823   1.378       .  A
C822       C1597   1.431       .  S
C823        H825   1.082       .  S
N826        N827   1.323       .  A
N826        C830   1.341       .  A
N827        C828   1.347       .  A
C828        C829   1.389       .  A
C828        H831   1.081       .  S
C829        C830   1.376       .  A
C829       C1605   1.475       .  S
C830        H832   1.082       .  S
O833       Cu841   1.991       .  S
O833        C843   1.274       .  A
O834       Cu841   1.992       .  S
O834        C844   1.274       .  A
O835       Cu841   2.013       .  S
O835        C845   1.277       .  A
O836       Cu841   2.011   1_545  S
O836        C846   1.277       .  A
O837       Cu842   2.011   1_545  S
O837        C846   1.276       .  A
O838       Cu842   2.012       .  S
O838        C845   1.276       .  A
O839       Cu842   2.018       .  S
O839        C844   1.278       .  A
O840       Cu842   2.017       .  S
O840        C843   1.278       .  A
Cu841      Cu842   2.380       .  S
C843       C1593   1.430       .  S
C844       C1595   1.431       .  S
C845       C1648   1.437       .  S
C846       C1601   1.436       .  S
O847       Cu855   2.004       .  S
O847        C857   1.276       .  A
O848       Cu855   2.005       .  S
O848        C858   1.276       .  A
O849       Cu855   1.996   1_556  S
O849        C859   1.275       .  A
O850       Cu855   1.994       .  S
O850        C860   1.274       .  A
O851       Cu856   2.010       .  S
O851        C860   1.276       .  A
O852       Cu856   2.011   1_556  S
O852        C859   1.277       .  A
O853       Cu856   2.015       .  S
O853        C858   1.277       .  A
O854       Cu856   2.013       .  S
O854        C857   1.277       .  A
Cu855      Cu856   2.381       .  S
C857       C1592   1.434       .  S
C858       C1589   1.435       .  S
C859       C1694   1.430       .  S
C860       C1598   1.429       .  S
N861        N862   1.323       .  A
N861        C865   1.348       .  A
N861       Cu869   2.080       .  S
N862        C863   1.341       .  A
N862       Cu868   2.057       .  S
C863        C864   1.374       .  A
C863        H866   1.082       .  S
C864        C865   1.381       .  A
C864       C1583   1.433       .  S
C865        H867   1.082       .  S
Cu868       N871   2.057       .  S
Cu869       N879   2.081       .  S
Cu870       N872   2.050       .  S
Cu870       N878   2.051       .  S
N871        N872   1.320       .  A
N871        C875   1.341       .  A
N872        C873   1.343       .  A
C873        C874   1.376       .  A
C873        H876   1.082       .  S
C874        C875   1.377       .  A
C874       C1581   1.426       .  S
C875        H877   1.082       .  S
N878        N879   1.322       .  A
N878        C882   1.340       .  A
N879        C880   1.346       .  A
C880        C881   1.388       .  A
C880        H883   1.081       .  S
C881        C882   1.375       .  A
C881       C1585   1.470       .  S
C882        H884   1.082       .  S
N885        N886   1.323       .  A
N885        C889   1.347       .  A
N885       Cu893   2.077       .  S
N886        C887   1.341       .  A
N886       Cu892   2.059       .  S
C887        C888   1.375       .  A
C887        H890   1.082       .  S
C888        C889   1.381       .  A
C888       C1577   1.433       .  S
C889        H891   1.082       .  S
Cu892       N895   2.059       .  S
Cu893       N903   2.078       .  S
Cu894       N896   2.053       .  S
Cu894       N902   2.053       .  S
N895        N896   1.321       .  A
N895        C899   1.342       .  A
N896        C897   1.343       .  A
C897        C898   1.376       .  A
C897        H900   1.082       .  S
C898        C899   1.377       .  A
C898       C1580   1.427       .  S
C899        H901   1.082       .  S
N902        N903   1.322       .  A
N902        C906   1.342       .  A
N903        C904   1.344       .  A
C904        C905   1.388       .  A
C904        H907   1.081       .  S
C905        C906   1.377       .  A
C905       C1586   1.472       .  S
C906        H908   1.082       .  S
O909       Cu917   2.002   1_655  S
O909        C919   1.275       .  A
O910       Cu917   2.003       .  S
O910        C920   1.275       .  A
O911       Cu917   2.021       .  S
O911        C921   1.278       .  A
O912       Cu917   2.023       .  S
O912        C922   1.278       .  A
O913       Cu918   2.006       .  S
O913        C922   1.276       .  A
O914       Cu918   2.004       .  S
O914        C921   1.276       .  A
O915       Cu918   1.990       .  S
O915        C920   1.274       .  A
O916       Cu918   1.990   1_655  S
O916        C919   1.274       .  A
Cu917      Cu918   2.381       .  S
C919       C1574   1.424       .  S
C920       C1582   1.424       .  S
C921       C1680   1.437       .  S
C922       C1575   1.439       .  S
O923       Cu931   2.022       .  S
O923        C933   1.278       .  A
O924       Cu931   2.021       .  S
O924        C934   1.278       .  A
O925       Cu931   1.997   1_545  S
O925        C935   1.275       .  A
O926       Cu931   1.995       .  S
O926        C936   1.275       .  A
O927       Cu932   2.011       .  S
O927        C936   1.276       .  A
O928       Cu932   2.012   1_545  S
O928        C935   1.276       .  A
O929       Cu932   2.027       .  S
O929        C934   1.278       .  A
O930       Cu932   2.027       .  S
O930        C933   1.278       .  A
Cu931      Cu932   2.378       .  S
C933       C1670   1.447       .  S
C934       C1571   1.446       .  S
C935       C1578   1.431       .  S
C936       C1612   1.429       .  S
N937        N938   1.321       .  A
N937        C941   1.347       .  A
N937       Cu945   2.071       .  S
N938        C939   1.343       .  A
N938       Cu944   2.064       .  S
C939        C940   1.378       .  A
C939        H942   1.082       .  S
C940        C941   1.381       .  A
C940       C1565   1.436       .  S
C941        H943   1.082       .  S
Cu944       N947   2.064       .  S
Cu945       N955   2.072       .  S
Cu946       N948   2.095       .  S
Cu946       N954   2.096       .  S
N947        N948   1.324       .  A
N947        C951   1.343       .  A
N948        C949   1.350       .  A
C949        C950   1.385       .  A
C949        H952   1.082       .  S
C950        C951   1.376       .  A
C950       C1563   1.441       .  S
C951        H953   1.082       .  S
N954        N955   1.324       .  A
N954        C958   1.349       .  A
N955        C956   1.344       .  A
C956        C957   1.379       .  A
C956        H959   1.082       .  S
C957        C958   1.390       .  A
C957       C1567   1.481       .  S
C958        H960   1.081       .  S
N961        N962   1.321       .  A
N961        C965   1.347       .  A
N961       Cu969   2.071       .  S
N962        C963   1.343       .  A
N962       Cu968   2.062       .  S
C963        C964   1.378       .  A
C963        H966   1.082       .  S
C964        C965   1.381       .  A
C964       C1591   1.436       .  S
C965        H967   1.082       .  S
Cu968       N971   2.062       .  S
Cu969       N979   2.072       .  S
Cu970       N972   2.096       .  S
Cu970       N978   2.097       .  S
N971        N972   1.324       .  A
N971        C975   1.342       .  A
N972        C973   1.351       .  A
C973        C974   1.385       .  A
C973        H976   1.082       .  S
C974        C975   1.375       .  A
C974       C1561   1.441       .  S
C975        H977   1.082       .  S
N978        N979   1.324       .  A
N978        C982   1.349       .  A
N979        C980   1.344       .  A
C980        C981   1.379       .  A
C980        H983   1.082       .  S
C981        C982   1.390       .  A
C981       C1568   1.481       .  S
C982        H984   1.081       .  S
N985        N986   1.325       .  A
N985        C989   1.353       .  A
N985       Cu993   2.110       .  S
N986        C987   1.344       .  A
N986       Cu992   2.069       .  S
C987        C988   1.377       .  A
C987        H990   1.082       .  S
C988        C989   1.388       .  A
C988       C1554   1.448       .  S
C989        H991   1.082       .  S
Cu992       N995   2.068       .  S
Cu993      N1003   2.110       .  S
Cu994       N996   2.059       .  S
Cu994      N1002   2.060       .  S
N995        N996   1.321       .  A
N995        C999   1.344       .  A
N996        C997   1.345       .  A
C997        C998   1.378       .  A
C997       H1000   1.082       .  S
C998        C999   1.379       .  A
C998       C1555   1.433       .  S
C999       H1001   1.082       .  S
N1002      N1003   1.324       .  A
N1002      C1006   1.342       .  A
N1003      C1004   1.351       .  A
C1004      C1005   1.394       .  A
C1004      H1007   1.081       .  S
C1005      C1006   1.377       .  A
C1005      C1557   1.482       .  S
C1006      H1008   1.082       .  S
N1009      N1010   1.321       .  A
N1009      C1013   1.345       .  A
N1009     Cu1017   2.058       .  S
N1010      C1011   1.344       .  A
N1010     Cu1016   2.069       .  S
C1011      C1012   1.380       .  A
C1011      H1014   1.082       .  S
C1012      C1013   1.378       .  A
C1012      C1596   1.434       .  S
C1013      H1015   1.082       .  S
Cu1016     N1019   2.070       .  S
Cu1017     N1027   2.059       .  S
Cu1018     N1020   2.111       .  S
Cu1018     N1026   2.111       .  S
N1019      N1020   1.325       .  A
N1019      C1023   1.344       .  A
N1020      C1021   1.353       .  A
C1021      C1022   1.388       .  A
C1021      H1024   1.082       .  S
C1022      C1023   1.377       .  A
C1022      C1572   1.447       .  S
C1023      H1025   1.082       .  S
N1026      N1027   1.324       .  A
N1026      C1030   1.352       .  A
N1027      C1028   1.342       .  A
C1028      C1029   1.376       .  A
C1028      H1031   1.082       .  S
C1029      C1030   1.394       .  A
C1029      C1558   1.482       .  S
C1030      H1032   1.081       .  S
N1033      N1034   1.324       .  A
N1033      C1037   1.350       .  A
N1033     Cu1041   2.092       .  S
N1034      C1035   1.342       .  A
N1034     Cu1040   2.062       .  S
C1035      C1036   1.376       .  A
C1035      H1038   1.082       .  S
C1036      C1037   1.384       .  A
C1036      C1546   1.439       .  S
C1037      H1039   1.082       .  S
Cu1040     N1043   2.062       .  S
Cu1041     N1051   2.092       .  S
Cu1042     N1044   2.060       .  S
Cu1042     N1050   2.061       .  S
N1043      N1044   1.321       .  A
N1043      C1047   1.343       .  A
N1044      C1045   1.345       .  A
C1045      C1046   1.379       .  A
C1045      H1048   1.082       .  S
C1046      C1047   1.378       .  A
C1046      C1548   1.432       .  S
C1047      H1049   1.082       .  S
N1050      N1051   1.323       .  A
N1050      C1054   1.342       .  A
N1051      C1052   1.348       .  A
C1052      C1053   1.390       .  A
C1052      H1055   1.081       .  S
C1053      C1054   1.377       .  A
C1053      C1549   1.477       .  S
C1054      H1056   1.082       .  S
N1057      N1058   1.324       .  A
N1057      C1061   1.350       .  A
N1057     Cu1065   2.091       .  S
N1058      C1059   1.343       .  A
N1058     Cu1064   2.071       .  S
C1059      C1060   1.377       .  A
C1059      H1062   1.082       .  S
C1060      C1061   1.384       .  A
C1060      C1576   1.441       .  S
C1061      H1063   1.082       .  S
Cu1064     N1067   2.070       .  S
Cu1065     N1075   2.092   1_455  S
Cu1066     N1068   2.059       .  S
Cu1066     N1074   2.060   1_455  S
N1067      N1068   1.321       .  A
N1067      C1071   1.344       .  A
N1068      C1069   1.345       .  A
C1069      C1070   1.378       .  A
C1069      H1072   1.082       .  S
C1070      C1071   1.380       .  A
C1070      C1543   1.434       .  S
C1071      H1073   1.082       .  S
N1074      N1075   1.323       .  A
N1074      C1078   1.342       .  A
N1075      C1076   1.348       .  A
C1076      C1077   1.390       .  A
C1076      H1079   1.081       .  S
C1077      C1078   1.377       .  A
C1077      C1550   1.477       .  S
C1078      H1080   1.082       .  S
O1081     Cu1089   1.993       .  S
O1081      C1091   1.274       .  A
O1082     Cu1089   1.994   1_455  S
O1082      C1092   1.274       .  A
O1083     Cu1089   2.002       .  S
O1083      C1093   1.276       .  A
O1084     Cu1089   2.000   1_545  S
O1084      C1094   1.275       .  A
O1085     Cu1090   2.008   1_545  S
O1085      C1094   1.276       .  A
O1086     Cu1090   2.010       .  S
O1086      C1093   1.276       .  A
O1087     Cu1090   2.015   1_455  S
O1087      C1092   1.277       .  A
O1088     Cu1090   2.014       .  S
O1088      C1091   1.277       .  A
Cu1089    Cu1090   2.382       .  S
C1091      C1541   1.429       .  S
C1092      C1556   1.431       .  S
C1093      C1627   1.432       .  S
C1094      C1547   1.430       .  S
O1095     Cu1103   2.020   1_556  S
O1095      C1105   1.278       .  A
O1096     Cu1103   2.020       .  S
O1096      C1106   1.278       .  A
O1097     Cu1103   2.012   1_545  S
O1097      C1107   1.277       .  A
O1098     Cu1103   2.012       .  S
O1098      C1108   1.277       .  A
O1099     Cu1104   2.018       .  S
O1099      C1108   1.277       .  A
O1100     Cu1104   2.018   1_545  S
O1100      C1107   1.277       .  A
O1101     Cu1104   2.028       .  S
O1101      C1106   1.278       .  A
O1102     Cu1104   2.028   1_556  S
O1102      C1105   1.279       .  A
Cu1103    Cu1104   2.377       .  S
C1105      C1674   1.447       .  S
C1106      C1553   1.446       .  S
C1107      C1564   1.440       .  S
C1108      C1637   1.439       .  S
O1109     Cu1117   2.004   1_455  S
O1109      C1119   1.276       .  A
O1110     Cu1117   2.005       .  S
O1110      C1120   1.276       .  A
O1111     Cu1117   2.005   1_556  S
O1111      C1121   1.276       .  A
O1112     Cu1117   2.007       .  S
O1112      C1122   1.276       .  A
O1113     Cu1118   2.018       .  S
O1113      C1122   1.277       .  A
O1114     Cu1118   2.015   1_556  S
O1114      C1121   1.277       .  A
O1115     Cu1118   2.016       .  S
O1115      C1120   1.277       .  A
O1116     Cu1118   2.014   1_455  S
O1116      C1119   1.277       .  A
Cu1117    Cu1118   2.380       .  S
C1119      C1566   1.434       .  S
C1120      C1539   1.436       .  S
C1121      C1686   1.435       .  S
C1122      C1545   1.437       .  S
N1123      N1124   1.321       .  A
N1123      C1127   1.348       .  A
N1123     Cu1131   2.078       .  S
N1124      C1125   1.344       .  A
N1124     Cu1130   2.065       .  S
C1125      C1126   1.379       .  A
C1125      H1128   1.082       .  S
C1126      C1127   1.383       .  A
C1126      C1533   1.439       .  S
C1127      H1129   1.082       .  S
Cu1130     N1133   2.065       .  S
Cu1131     N1141   2.079       .  S
Cu1132     N1134   2.105       .  S
Cu1132     N1140   2.106       .  S
N1133      N1134   1.324       .  A
N1133      C1137   1.343       .  A
N1134      C1135   1.352       .  A
C1135      C1136   1.388       .  A
C1135      H1138   1.082       .  S
C1136      C1137   1.376       .  A
C1136      C1532   1.445       .  S
C1137      H1139   1.082       .  S
N1140      N1141   1.325       .  A
N1140      C1144   1.350       .  A
N1141      C1142   1.345       .  A
C1142      C1143   1.381       .  A
C1142      H1145   1.082       .  S
C1143      C1144   1.392       .  A
C1143      C1535   1.486       .  S
C1144      H1146   1.081       .  S
N1147      N1148   1.321       .  A
N1147      C1151   1.347       .  A
N1147     Cu1155   2.073       .  S
N1148      C1149   1.345       .  A
N1148     Cu1154   2.071       .  S
C1149      C1150   1.380       .  A
C1149      H1152   1.082       .  S
C1150      C1151   1.382       .  A
C1150      C1527   1.440       .  S
C1151      H1153   1.082       .  S
Cu1154     N1157   2.071       .  S
Cu1155     N1165   2.074       .  S
Cu1156     N1158   2.107       .  S
Cu1156     N1164   2.107       .  S
N1157      N1158   1.325       .  A
N1157      C1161   1.344       .  A
N1158      C1159   1.352       .  A
C1159      C1160   1.387       .  A
C1159      H1162   1.082       .  S
C1160      C1161   1.377       .  A
C1160      C1529   1.447       .  S
C1161      H1163   1.082       .  S
N1164      N1165   1.324       .  A
N1164      C1168   1.352       .  A
N1165      C1166   1.344       .  A
C1166      C1167   1.379       .  A
C1166      H1169   1.082       .  S
C1167      C1168   1.392       .  A
C1167      C1536   1.485       .  S
C1168      H1170   1.081       .  S
O1171     Cu1179   2.020       .  S
O1171      C1181   1.278       .  A
O1172     Cu1179   2.017       .  S
O1172      C1182   1.278       .  A
O1173     Cu1179   2.022   1_655  S
O1173      C1183   1.278       .  A
O1174     Cu1179   2.023       .  S
O1174      C1184   1.278       .  A
O1175     Cu1180   2.019       .  S
O1175      C1184   1.278       .  A
O1176     Cu1180   2.019   1_655  S
O1176      C1183   1.278       .  A
O1177     Cu1180   1.996       .  S
O1177      C1182   1.274       .  A
O1178     Cu1180   1.998       .  S
O1178      C1181   1.275       .  A
Cu1179    Cu1180   2.378       .  S
C1181      C1624   1.435       .  S
C1182      C1544   1.432       .  S
C1183      C1526   1.444       .  S
C1184      C1531   1.444       .  S
O1185     Cu1193   2.015       .  S
O1185      C1195   1.277       .  A
O1186     Cu1193   2.016       .  S
O1186      C1196   1.277       .  A
O1187     Cu1193   2.023       .  S
O1187      C1197   1.278       .  A
O1188     Cu1193   2.025   1_556  S
O1188      C1198   1.278       .  A
O1189     Cu1194   2.005   1_556  S
O1189      C1198   1.276       .  A
O1190     Cu1194   2.004       .  S
O1190      C1197   1.275       .  A
O1191     Cu1194   2.014       .  S
O1191      C1196   1.277       .  A
O1192     Cu1194   2.014       .  S
O1192      C1195   1.277       .  A
Cu1193    Cu1194   2.378       .  S
C1195      C1633   1.439       .  S
C1196      C1562   1.439       .  S
C1197      C1528   1.438       .  S
C1198      C1658   1.440       .  S
O1199     Cu1207   2.008       .  S
O1199      C1209   1.276       .  A
O1200     Cu1207   2.006       .  S
O1200      C1210   1.276       .  A
O1201     Cu1207   2.019       .  S
O1201      C1211   1.277       .  A
O1202     Cu1207   2.018       .  S
O1202      C1212   1.277       .  A
O1203     Cu1208   2.009       .  S
O1203      C1212   1.276       .  A
O1204     Cu1208   2.010       .  S
O1204      C1211   1.277       .  A
O1205     Cu1208   2.000       .  S
O1205      C1210   1.275       .  A
O1206     Cu1208   2.001       .  S
O1206      C1209   1.276       .  A
Cu1207    Cu1208   2.380       .  S
C1209      C1584   1.431       .  S
C1210      C1615   1.429       .  S
C1211      C1664   1.439       .  S
C1212      C1534   1.438       .  S
O1213     Cu1221   1.996       .  S
O1213      C1223   1.275       .  A
O1214     Cu1221   1.997       .  S
O1214      C1224   1.275       .  A
O1215     Cu1221   1.991       .  S
O1215      C1225   1.274       .  A
O1216     Cu1221   1.991       .  S
O1216      C1226   1.274       .  A
O1217     Cu1222   2.003       .  S
O1217      C1226   1.275       .  A
O1218     Cu1222   2.003       .  S
O1218      C1225   1.276       .  A
O1219     Cu1222   2.009       .  S
O1219      C1224   1.276       .  A
O1220     Cu1222   2.008       .  S
O1220      C1223   1.276       .  A
Cu1221    Cu1222   2.383       .  S
C1223      C1603   1.428       .  S
C1224      C1700   1.430       .  S
C1225      C1579   1.425       .  S
C1226      C1523   1.425       .  S
O1227     Cu1235   2.017       .  S
O1227      C1237   1.277       .  A
O1228     Cu1235   2.017       .  S
O1228      C1238   1.277       .  A
O1229     Cu1235   2.025       .  S
O1229      C1239   1.278       .  A
O1230     Cu1235   2.025       .  S
O1230      C1240   1.278       .  A
O1231     Cu1236   2.020       .  S
O1231      C1240   1.278       .  A
O1232     Cu1236   2.019       .  S
O1232      C1239   1.278       .  A
O1233     Cu1236   2.008       .  S
O1233      C1238   1.276       .  A
O1234     Cu1236   2.010       .  S
O1234      C1237   1.277       .  A
Cu1235    Cu1236   2.377       .  S
C1237      C1652   1.438       .  S
C1238      C1600   1.437       .  S
C1239      C1521   1.445       .  S
C1240      C1530   1.445       .  S
N1241      N1242   1.321       .  A
N1241      C1245   1.346       .  A
N1241     Cu1249   2.065       .  S
N1242      C1243   1.343       .  A
N1242     Cu1248   2.062       .  S
C1243      C1244   1.378       .  A
C1243      H1246   1.082       .  S
C1244      C1245   1.380       .  A
C1244      C1515   1.434       .  S
C1245      H1247   1.082       .  S
Cu1248     N1251   2.063       .  S
Cu1249     N1259   2.067       .  S
Cu1250     N1252   2.108       .  S
Cu1250     N1258   2.108       .  S
N1251      N1252   1.324       .  A
N1251      C1255   1.343       .  A
N1252      C1253   1.353       .  A
C1253      C1254   1.388       .  A
C1253      H1256   1.082       .  S
C1254      C1255   1.376       .  A
C1254      C1522   1.446       .  S
C1255      H1257   1.082       .  S
N1258      N1259   1.324       .  A
N1258      C1262   1.351       .  A
N1259      C1260   1.343       .  A
C1260      C1261   1.378       .  A
C1260      H1263   1.082       .  S
C1261      C1262   1.392       .  A
C1261      C1517   1.483       .  S
C1262      H1264   1.081       .  S
N1265      N1266   1.321       .  A
N1265      C1269   1.346       .  A
N1265     Cu1273   2.065       .  S
N1266      C1267   1.344       .  A
N1266     Cu1272   2.065       .  S
C1267      C1268   1.379       .  A
C1267      H1270   1.082       .  S
C1268      C1269   1.379       .  A
C1268      C1513   1.434       .  S
C1269      H1271   1.082       .  S
Cu1272     N1275   2.066       .  S
Cu1273     N1283   2.066       .  S
Cu1274     N1276   2.105       .  S
Cu1274     N1282   2.106       .  S
N1275      N1276   1.324       .  A
N1275      C1279   1.343       .  A
N1276      C1277   1.352       .  A
C1277      C1278   1.387       .  A
C1277      H1280   1.082       .  S
C1278      C1279   1.376       .  A
C1278      C1525   1.445       .  S
C1279      H1281   1.082       .  S
N1282      N1283   1.324       .  A
N1282      C1286   1.351       .  A
N1283      C1284   1.343       .  A
C1284      C1285   1.378       .  A
C1284      H1287   1.082       .  S
C1285      C1286   1.392       .  A
C1285      C1518   1.483       .  S
C1286      H1288   1.081       .  S
O1289     Cu1297   2.011   1_556  S
O1289      C1299   1.277       .  A
O1290     Cu1297   2.013       .  S
O1290      C1300   1.277       .  A
O1291     Cu1297   2.007       .  S
O1291      C1301   1.276       .  A
O1292     Cu1297   2.009       .  S
O1292      C1302   1.276       .  A
O1293     Cu1298   1.997       .  S
O1293      C1302   1.275       .  A
O1294     Cu1298   1.996       .  S
O1294      C1301   1.275       .  A
O1295     Cu1298   1.999       .  S
O1295      C1300   1.275       .  A
O1296     Cu1298   1.998   1_556  S
O1296      C1299   1.275       .  A
Cu1297    Cu1298   2.382       .  S
C1299      C1742   1.431       .  S
C1300      C1516   1.432       .  S
C1301      C1512   1.428       .  S
C1302      C1730   1.430       .  S
N1303      N1304   1.321       .  A
N1303      C1307   1.344       .  A
N1303     Cu1311   2.057       .  S
N1304      C1305   1.343       .  A
N1304     Cu1310   2.061       .  S
C1305      C1306   1.378       .  A
C1305      H1308   1.082       .  S
C1306      C1307   1.378       .  A
C1306      C1506   1.430       .  S
C1307      H1309   1.082       .  S
Cu1310     N1313   2.062       .  S
Cu1311     N1321   2.058       .  S
Cu1312     N1314   2.087       .  S
Cu1312     N1320   2.087       .  S
N1313      N1314   1.323       .  A
N1313      C1317   1.342       .  A
N1314      C1315   1.349       .  A
C1315      C1316   1.383       .  A
C1315      H1318   1.082       .  S
C1316      C1317   1.376       .  A
C1316      C1540   1.437       .  S
C1317      H1319   1.082       .  S
N1320      N1321   1.323       .  A
N1320      C1324   1.347       .  A
N1321      C1322   1.342       .  A
C1322      C1323   1.377       .  A
C1322      H1325   1.082       .  S
C1323      C1324   1.389       .  A
C1323      C1507   1.475       .  S
C1324      H1326   1.081       .  S
N1327      N1328   1.321       .  A
N1327      C1331   1.344       .  A
N1327     Cu1335   2.057       .  S
N1328      C1329   1.343       .  A
N1328     Cu1334   2.061       .  S
C1329      C1330   1.378       .  A
C1329      H1332   1.082       .  S
C1330      C1331   1.378       .  A
C1330      C1511   1.430       .  S
C1331      H1333   1.082       .  S
Cu1334     N1337   2.062       .  S
Cu1335     N1345   2.057       .  S
Cu1336     N1338   2.087       .  S
Cu1336     N1344   2.087       .  S
N1337      N1338   1.323       .  A
N1337      C1341   1.342       .  A
N1338      C1339   1.349       .  A
C1339      C1340   1.383       .  A
C1339      H1342   1.082       .  S
C1340      C1341   1.375       .  A
C1340      C1590   1.437       .  S
C1341      H1343   1.082       .  S
N1344      N1345   1.323       .  A
N1344      C1348   1.347       .  A
N1345      C1346   1.342       .  A
C1346      C1347   1.377       .  A
C1346      H1349   1.082       .  S
C1347      C1348   1.389       .  A
C1347      C1508   1.475       .  S
C1348      H1350   1.081       .  S
N1351      N1352   1.324       .  A
N1351      C1355   1.350       .  A
N1351     Cu1359   2.091       .  S
N1352      C1353   1.343       .  A
N1352     Cu1358   2.067       .  S
C1353      C1354   1.376       .  A
C1353      H1356   1.082       .  S
C1354      C1355   1.384       .  A
C1354      C1500   1.439       .  S
C1355      H1357   1.082       .  S
Cu1358     N1361   2.066       .  S
Cu1359     N1369   2.092       .  S
Cu1360     N1362   2.055       .  S
Cu1360     N1368   2.056       .  S
N1361      N1362   1.321       .  A
N1361      C1365   1.344       .  A
N1362      C1363   1.344       .  A
C1363      C1364   1.377       .  A
C1363      H1366   1.082       .  S
C1364      C1365   1.379       .  A
C1364      C1542   1.432       .  S
C1365      H1367   1.082       .  S
N1368      N1369   1.323       .  A
N1368      C1372   1.341       .  A
N1369      C1370   1.348       .  A
C1370      C1371   1.390       .  A
C1370      H1373   1.081       .  S
C1371      C1372   1.376       .  A
C1371      C1501   1.476       .  S
C1372      H1374   1.082       .  S
N1375      N1376   1.324       .  A
N1375      C1379   1.349       .  A
N1375     Cu1383   2.091       .  S
N1376      C1377   1.343       .  A
N1376     Cu1382   2.070       .  S
C1377      C1378   1.377       .  A
C1377      H1380   1.082       .  S
C1378      C1379   1.383       .  A
C1378      C1497   1.440       .  S
C1379      H1381   1.082       .  S
Cu1382     N1385   2.069       .  S
Cu1383     N1393   2.091       .  S
Cu1384     N1386   2.055       .  S
Cu1384     N1392   2.055       .  S
N1385      N1386   1.321       .  A
N1385      C1389   1.344       .  A
N1386      C1387   1.344       .  A
C1387      C1388   1.377       .  A
C1387      H1390   1.082       .  S
C1388      C1389   1.380       .  A
C1388      C1594   1.432       .  S
C1389      H1391   1.082       .  S
N1392      N1393   1.323       .  A
N1392      C1396   1.341       .  A
N1393      C1394   1.348       .  A
C1394      C1395   1.390       .  A
C1394      H1397   1.081       .  S
C1395      C1396   1.376       .  A
C1395      C1502   1.476       .  S
C1396      H1398   1.082       .  S
O1399     Cu1407   2.004   1_556  S
O1399      C1409   1.276       .  A
O1400     Cu1407   2.006       .  S
O1400      C1410   1.276       .  A
O1401     Cu1407   1.998       .  S
O1401      C1411   1.275       .  A
O1402     Cu1407   1.996   1_545  S
O1402      C1412   1.275       .  A
O1403     Cu1408   2.007   1_545  S
O1403      C1412   1.276       .  A
O1404     Cu1408   2.009       .  S
O1404      C1411   1.276       .  A
O1405     Cu1408   2.020       .  S
O1405      C1410   1.278       .  A
O1406     Cu1408   2.018   1_556  S
O1406      C1409   1.277       .  A
Cu1407    Cu1408   2.381       .  S
C1409      C1722   1.435       .  S
C1410      C1499   1.438       .  S
C1411      C1736   1.430       .  S
C1412      C1505   1.428       .  S
N1413      N1414   1.320       .  A
N1413      C1417   1.344       .  A
N1413     Cu1421   2.053       .  S
N1414      C1415   1.341       .  A
N1414     Cu1420   2.054       .  S
C1415      C1416   1.376       .  A
C1415      H1418   1.082       .  S
C1416      C1417   1.377       .  A
C1416      C1524   1.427       .  S
C1417      H1419   1.082       .  S
Cu1420     N1423   2.055       .  S
Cu1421     N1431   2.054       .  S
Cu1422     N1424   2.083       .  S
Cu1422     N1430   2.084       .  S
N1423      N1424   1.323       .  A
N1423      C1427   1.341       .  A
N1424      C1425   1.348       .  A
C1425      C1426   1.383       .  A
C1425      H1428   1.082       .  S
C1426      C1427   1.374       .  A
C1426      C1491   1.433       .  S
C1427      H1429   1.082       .  S
N1430      N1431   1.323       .  A
N1430      C1434   1.346       .  A
N1431      C1432   1.341       .  A
C1432      C1433   1.376       .  A
C1432      H1435   1.082       .  S
C1433      C1434   1.388       .  A
C1433      C1493   1.472       .  S
C1434      H1436   1.081       .  S
N1437      N1438   1.323       .  A
N1437      C1441   1.348       .  A
N1437     Cu1445   2.083       .  S
N1438      C1439   1.341       .  A
N1438     Cu1444   2.057       .  S
C1439      C1440   1.374       .  A
C1439      H1442   1.082       .  S
C1440      C1441   1.382       .  A
C1440      C1490   1.434       .  S
C1441      H1443   1.082       .  S
Cu1444     N1447   2.056       .  S
Cu1445     N1455   2.084       .  S
Cu1446     N1448   2.051       .  S
Cu1446     N1454   2.052       .  S
N1447      N1448   1.320       .  A
N1447      C1451   1.342       .  A
N1448      C1449   1.343       .  A
C1449      C1450   1.376       .  A
C1449      H1452   1.082       .  S
C1450      C1451   1.377       .  A
C1450      C1573   1.426       .  S
C1451      H1453   1.082       .  S
N1454      N1455   1.323       .  A
N1454      C1458   1.341       .  A
N1455      C1456   1.346       .  A
C1456      C1457   1.388       .  A
C1456      H1459   1.081       .  S
C1457      C1458   1.376       .  A
C1457      C1494   1.472       .  S
C1458      H1460   1.082       .  S
O1461     Cu1469   2.003       .  S
O1461      C1471   1.276       .  A
O1462     Cu1469   2.004   1_545  S
O1462      C1472   1.276       .  A
O1463     Cu1469   2.004       .  S
O1463      C1473   1.276       .  A
O1464     Cu1469   2.002       .  S
O1464      C1474   1.275       .  A
O1465     Cu1470   2.020       .  S
O1465      C1474   1.278       .  A
O1466     Cu1470   2.022       .  S
O1466      C1473   1.278       .  A
O1467     Cu1470   2.007   1_545  S
O1467      C1472   1.276       .  A
O1468     Cu1470   2.006       .  S
O1468      C1471   1.276       .  A
Cu1469    Cu1470   2.380       .  S
C1471      C1753   1.430       .  S
C1472      C1492   1.432       .  S
C1473      C1498   1.438       .  S
C1474      C1718   1.436       .  S
O1475     Cu1483   2.007       .  S
O1475      C1485   1.276       .  A
O1476     Cu1483   2.008       .  S
O1476      C1486   1.276       .  A
O1477     Cu1483   2.013       .  S
O1477      C1487   1.277       .  A
O1478     Cu1483   2.015       .  S
O1478      C1488   1.277       .  A
O1479     Cu1484   1.997       .  S
O1479      C1488   1.275       .  A
O1480     Cu1484   1.996       .  S
O1480      C1487   1.275       .  A
O1481     Cu1484   2.004       .  S
O1481      C1486   1.276       .  A
O1482     Cu1484   2.002       .  S
O1482      C1485   1.276       .  A
Cu1483    Cu1484   2.381       .  S
C1485      C1758   1.430       .  S
C1486      C1489   1.432       .  S
C1487      C1746   1.430       .  S
C1488      C1514   1.432       .  S
C1489      C1490   1.204       .  T
C1491      C1492   1.204       .  T
C1493      C1494   1.338       .  D
C1493      H1495   1.085       .  S
C1494      H1496   1.085       .  S
C1497      C1498   1.208       .  T
C1499      C1500   1.207       .  T
C1501      C1502   1.339       .  D
C1501      H1503   1.085       .  S
C1502      H1504   1.085       .  S
C1505      C1506   1.202       .  T
C1507      C1508   1.339       .  D
C1507      H1509   1.085       .  S
C1508      H1510   1.085       .  S
C1511      C1512   1.202       .  T
C1513      C1514   1.204       .  T
C1515      C1516   1.204       .  T
C1517      C1518   1.342       .  D
C1517      H1519   1.085       .  S
C1518      H1520   1.085       .  S
C1521      C1522   1.211       .  T
C1523      C1524   1.200       .  T
C1525      C1526   1.211       .  T
C1527      C1528   1.207       .  T
C1529      C1530   1.212       .  T
C1531      C1532   1.211       .  T
C1533      C1534   1.207       .  T
C1535      C1536   1.344       .  D
C1535      H1537   1.085       .  S
C1536      H1538   1.085       .  S
C1539      C1540   1.206       .  T
C1541      C1542   1.203       .  T
C1543      C1544   1.204       .  T
C1545      C1546   1.207       .  T
C1547      C1548   1.203       .  T
C1549      C1550   1.340       .  D
C1549      H1551   1.085       .  S
C1550      H1552   1.085       .  S
C1553      C1554   1.212       .  T
C1555      C1556   1.203       .  T
C1557      C1558   1.340       .  D
C1557      H1559   1.086       .  S
C1558      H1560   1.086       .  S
C1561      C1562   1.208       .  T
C1563      C1564   1.208       .  T
C1565      C1566   1.205       .  T
C1567      C1568   1.342       .  D
C1567      H1569   1.085       .  S
C1568      H1570   1.085       .  S
C1571      C1572   1.212       .  T
C1573      C1574   1.199       .  T
C1575      C1576   1.208       .  T
C1577      C1578   1.204       .  T
C1579      C1580   1.200       .  T
C1581      C1582   1.199       .  T
C1583      C1584   1.203       .  T
C1585      C1586   1.338       .  D
C1585      H1587   1.085       .  S
C1586      H1588   1.085       .  S
C1589      C1590   1.206       .  T
C1591      C1592   1.205       .  T
C1593      C1594   1.203       .  T
C1595      C1596   1.204       .  T
C1597      C1598   1.202       .  T
C1599      C1600   1.207       .  T
C1601      C1602   1.206       .  T
C1603      C1604   1.202       .  T
C1605      C1606   1.339       .  D
C1605      H1607   1.085       .  S
C1606      H1608   1.085       .  S
C1609      C1610   1.209       .  T
C1611      C1612   1.202       .  T
C1613      C1614   1.209       .  T
C1615      C1616   1.202       .  T
C1617      C1618   1.340       .  D
C1617      H1619   1.086       .  S
C1618      H1620   1.085       .  S
C1621      C1622   1.203       .  T
C1623      C1624   1.206       .  T
C1625      C1626   1.201       .  T
C1627      C1628   1.204       .  T
C1629      C1630   1.339       .  D
C1629      H1631   1.085       .  S
C1630      H1632   1.085       .  S
C1633      C1634   1.208       .  T
C1635      C1636   1.201       .  T
C1637      C1638   1.208       .  T
C1639      C1640   1.339       .  D
C1639      H1641   1.085       .  S
C1640      H1642   1.085       .  S
C1643      C1644   1.201       .  T
C1645      C1646   1.202       .  T
C1647      C1648   1.207       .  T
C1649      C1650   1.202       .  T
C1651      C1652   1.208       .  T
C1653      C1654   1.339       .  D
C1653      H1655   1.085       .  S
C1654      H1656   1.085       .  S
C1657      C1658   1.209       .  T
C1659      C1660   1.206       .  T
C1661      C1662   1.205       .  T
C1663      C1664   1.208       .  T
C1665      C1666   1.342       .  D
C1665      H1667   1.085       .  S
C1666      H1668   1.085       .  S
C1669      C1670   1.213       .  T
C1671      C1672   1.207       .  T
C1673      C1674   1.213       .  T
C1675      C1676   1.343       .  D
C1675      H1677   1.085       .  S
C1676      H1678   1.085       .  S
C1679      C1680   1.207       .  T
C1681      C1682   1.209       .  T
C1683      C1684   1.208       .  T
C1685      C1686   1.206       .  T
C1687      C1688   1.343       .  D
C1687      H1689   1.085       .  S
C1688      H1690   1.085       .  S
C1691      C1692   1.207       .  T
C1693      C1694   1.203       .  T
C1695      C1696   1.207       .  T
C1697      C1698   1.207       .  T
C1699      C1700   1.203       .  T
C1701      C1702   1.338       .  D
C1701      H1703   1.087       .  S
C1702      H1704   1.086       .  S
C1705      C1706   1.203       .  T
C1707      C1708   1.208       .  T
C1709      C1710   1.201       .  T
C1711      C1712   1.207       .  T
C1713      C1714   1.339       .  D
C1713      H1715   1.085       .  S
C1714      H1716   1.085       .  S
C1717      C1718   1.206       .  T
C1719      C1720   1.208       .  T
C1721      C1722   1.206       .  T
C1723      C1724   1.208       .  T
C1725      C1726   1.342       .  D
C1725      H1727   1.085       .  S
C1726      H1728   1.085       .  S
C1729      C1730   1.203       .  T
C1731      C1732   1.200       .  T
C1733      C1734   1.200       .  T
C1735      C1736   1.203       .  T
C1737      C1738   1.338       .  D
C1737      H1739   1.085       .  S
C1738      H1740   1.085       .  S
C1741      C1742   1.203       .  T
C1743      C1744   1.207       .  T
C1745      C1746   1.203       .  T
C1747      C1748   1.206       .  T
C1749      C1750   1.340       .  D
C1749      H1751   1.085       .  S
C1750      H1752   1.085       .  S
C1753      C1754   1.203       .  T
C1755      C1756   1.209       .  T
C1757      C1758   1.203       .  T
C1759      C1760   1.209       .  T
C1761      C1762   1.341       .  D
C1761      H1763   1.085       .  S
C1762      H1764   1.085       .  S
C1765      C1766   1.201       .  T
C1767      C1768   1.206       .  T
C1769      C1770   1.202       .  T
C1771      C1772   1.206       .  T
C1773      C1774   1.339       .  D
C1773      H1775   1.085       .  S
C1774      H1776   1.085       .  S
