geometry optimzed in LAMMPS
_audit_creation_date              2020-12-01 
_audit_creation_method            'lammps2cif' 
_symmetry_space_group_name_H-M    'P1' 
_symmetry_Int_Tables_number       1 
_symmetry_cell_setting            triclinic 
loop_ 
_symmetry_equiv_pos_as_xyz 
  x,y,z 
_cell_length_a                    41.54088691 
_cell_length_b                    41.891266691191326 
_cell_length_c                    46.76101689147312 
_cell_angle_alpha                 98.94745991566731 
_cell_angle_beta                  81.87845512515409 
_cell_angle_gamma                 122.3847235714974 
loop_ 
_atom_site_label 
_atom_site_type_symbol 
_atom_site_fract_x 
_atom_site_fract_y 
_atom_site_fract_z 
_atom_site_charge 
C1          C  0.35417070  0.14964291  0.97864596     0.78900
N2          N  0.37331447  0.18777772  0.97735549    -0.79400
C3          C  0.35395022  0.20558337  0.97774372     0.81300
N4          N  0.31526667  0.18517255  0.97908824    -0.79400
C5          C  0.29567668  0.14712009  0.98078896     0.81400
N6          N  0.31532161  0.12947778  0.98032007    -0.81100
C7          C  0.35093865  0.14806218  0.22914113     0.78900
N8          N  0.31217944  0.12774784  0.23080705    -0.79400
C9          C  0.29237597  0.14497194  0.23047898     0.81300
N10         N  0.31168385  0.18269146  0.22740614    -0.79400
C11         C  0.35044055  0.20311169  0.22512828     0.81400
N12         N  0.36995267  0.18573976  0.22597930    -0.81100
C13         C  0.14519740  0.34749415  0.36646408     0.78900
N14         N  0.12666369  0.30995972  0.36999676    -0.79400
C15         C  0.14638314  0.29356292  0.37335794     0.81300
N16         N  0.18497766  0.31493449  0.37349482    -0.79400
C17         C  0.20368055  0.35256799  0.37066183     0.81400
N18         N  0.18382461  0.36864546  0.36716785    -0.81100
C19         C  0.14208084  0.34194805  0.11604510     0.78900
N20         N  0.12440739  0.30364689  0.11573272    -0.79400
C21         C  0.14537995  0.28730401  0.11455614     0.81300
N22         N  0.18404328  0.30954475  0.11388294    -0.79400
C23         C  0.20211338  0.34776227  0.11391821     0.81400
N24         N  0.18083679  0.36360768  0.11503285    -0.81100
N25         N  0.08335736  0.05798831  0.45204361    -0.07500
N26         N  0.11027020  0.07201908  0.47037807    -0.59600
N27         N  0.06103838  0.08143470  0.39632757    -0.07200
N28         N  0.07688865  0.10905987  0.37914181    -0.61700
N29         N  0.05008753  0.09223452  0.42178158    -0.06800
N30         N  0.05820500  0.12732204  0.42245016    -0.59600
N31         N  0.09430131  0.04693262  0.42668850    -0.06400
N32         N  0.12885430  0.05305826  0.42730473    -0.62100
C33         C  0.13825395  0.06823820  0.45480659     0.94700
C34         C  0.07488451  0.13750507  0.39574718     0.94500
N35         N  0.48999197  0.47465833  0.35243976    -0.07700
N36         N  0.47408209  0.46695433  0.32781783    -0.60200
N37         N  0.05655743  0.47332479  0.38314468    -0.05800
N38         N  0.08514238  0.46759321  0.37811817    -0.61400
N39         N  0.02374821  0.44079680  0.38252563    -0.07700
N40         N  0.02937221  0.41225109  0.37683592    -0.60400
N41         N  0.02288123  0.00722850  0.35266274    -0.05400
N42         N  0.03013006  0.02243454  0.32809814    -0.61500
Mn43       Mn  0.05958864  0.02766503  0.38910258     1.18400
C44         C  0.49938888  0.49701644  0.31299760     0.96800
C45         C  0.06789413  0.42941248  0.37399856     0.97400
N46         N  0.47561493  0.05596958  0.46361866    -0.07700
N47         N  0.47045246  0.08482672  0.46819291    -0.64000
N48         N  0.47584618  0.48899631  0.49345011    -0.06500
N49         N  0.46821347  0.47307559  0.01766435    -0.64700
N50         N  0.00890026  0.02135704  0.49391048    -0.07200
N51         N  0.02458172  0.02826880  0.01850574    -0.64300
N52         N  0.44255864  0.02362539  0.46341464    -0.06100
N53         N  0.41414410  0.02976746  0.46795496    -0.65000
Mn54       Mn  0.02986473  0.05773682  0.45840635     1.10700
C55         C  0.43201980  0.06808049  0.47110492     0.98000
C56         C  0.49887338  0.49787073  0.03290843     0.98100
N57         N  0.45006563  0.40486807  0.42510009    -0.07200
N58         N  0.44441643  0.37082783  0.42526204    -0.62600
N59         N  0.40561234  0.45032152  0.41977790    -0.06500
N60         N  0.37155643  0.44516060  0.41902660    -0.59300
N61         N  0.41629410  0.43884472  0.39454660    -0.07900
N62         N  0.38960005  0.42548545  0.37615630    -0.62200
N63         N  0.43847239  0.41547117  0.45031849    -0.06800
N64         N  0.42443086  0.38864051  0.46807670    -0.59400
Mn65       Mn  0.46954143  0.43880939  0.38812139     1.20200
Mn66       Mn  0.43961494  0.46914285  0.45730744     1.10100
Cl67       Cl  0.49968707  0.49837791  0.42321233    -0.87300
C68         C  0.42871323  0.36102945  0.45228288     0.95000
C69         C  0.36189699  0.42981488  0.39160717     0.94800
N70         N  0.08075157  0.05644120  0.20284191    -0.07500
N71         N  0.10696605  0.07003128  0.22176146    -0.59600
N72         N  0.06041798  0.07831812  0.14477465    -0.07200
N73         N  0.07543329  0.10462008  0.12643306    -0.61700
N74         N  0.04901374  0.09009042  0.16956905    -0.06800
N75         N  0.05610654  0.12459655  0.16871789    -0.59600
N76         N  0.09179581  0.04422009  0.17811708    -0.06800
N77         N  0.12559347  0.04911614  0.17967704    -0.62100
C78         C  0.13454356  0.06472065  0.20711453     0.94700
C79         C  0.07197766  0.13301568  0.14158851     0.94500
N80         N  0.49079869  0.47140525  0.10209560    -0.07700
N81         N  0.47606036  0.46373812  0.07695058    -0.60200
N82         N  0.05492839  0.46943950  0.13588067    -0.05800
N83         N  0.08289669  0.46270754  0.13226687    -0.61400
N84         N  0.02166830  0.43735130  0.13532072    -0.07700
N85         N  0.02620745  0.40810116  0.13132162    -0.60400
N86         N  0.02404972  0.00354194  0.10256344    -0.05400
N87         N  0.03276334  0.01858794  0.07777937    -0.61500
Mn88       Mn  0.05879571  0.02434305  0.13980222     1.18400
C89         C  0.50256550  0.49343014  0.06218260     0.96800
C90         C  0.06454745  0.42433956  0.12925939     0.97400
N91         N  0.47375342  0.05558546  0.21020932    -0.07700
N92         N  0.46895676  0.08458490  0.21278572    -0.64000
N93         N  0.47225787  0.48994426  0.24345935    -0.06500
N94         N  0.46434793  0.47519092  0.26833588    -0.64700
N95         N  0.00536438  0.02229179  0.24364652    -0.07200
N96         N  0.02073771  0.03031568  0.26855925    -0.64300
N97         N  0.44054372  0.02337268  0.21002341    -0.06100
N98         N  0.41238967  0.02976509  0.21255439    -0.65000
Mn99       Mn  0.02766480  0.05705310  0.20716208     1.10700
C100        C  0.43060558  0.06803393  0.21399263     0.98000
C101        C  0.49487395  0.50072004  0.28361511     0.98100
N102        N  0.44705520  0.40346664  0.17591258    -0.07200
N103        N  0.44081610  0.36930226  0.17650231    -0.62600
N104        N  0.40346017  0.44834319  0.16767456    -0.06500
N105        N  0.36866792  0.44119792  0.16622020    -0.59300
N106        N  0.41515681  0.43676853  0.14292066    -0.07900
N107        N  0.38856966  0.42141816  0.12417092    -0.62200
N108        N  0.43516061  0.41458050  0.20074706    -0.06800
N109        N  0.42021014  0.38781929  0.21867879    -0.59400
Mn110      Mn  0.46822771  0.43647021  0.13852967     1.20200
Mn111      Mn  0.43680348  0.46860410  0.20616034     1.10100
Cl112      Cl  0.49784476  0.49662412  0.17292341    -0.87300
C113        C  0.42420274  0.35976825  0.20332271     0.95000
C114        C  0.35978450  0.42444427  0.13896069     0.94800
C115        C  0.09198619  0.17161473  0.13282610    -0.07500
C116        C  0.07638876  0.18018240  0.11266204    -0.18600
C117        C  0.09347449  0.21753302  0.10553868     0.09700
C118        C  0.12682460  0.24680840  0.11894423    -0.07400
C119        C  0.14252420  0.23772602  0.13871206    -0.18600
C120        C  0.12556769  0.20066264  0.14577166     0.09700
S121        S  0.07165379  0.22576604  0.07913271    -0.33600
S122        S  0.14766994  0.19254130  0.17211714    -0.33600
H123        H  0.13835116  0.15594804  0.16003861     0.27800
H124        H  0.10605572  0.25518225  0.06712975     0.27800
H125        H  0.05053422  0.15779001  0.10274512     0.18300
H126        H  0.16784443  0.25990430  0.14937141     0.18300
C127        C  0.32133220  0.40676166  0.12861252    -0.07500
C128        C  0.30133198  0.42544541  0.13671618    -0.18600
C129        C  0.26342788  0.40865443  0.13003253     0.09700
C130        C  0.24424829  0.37136601  0.11570908    -0.07400
C131        C  0.26525771  0.35384311  0.10603628    -0.18600
C132        C  0.30320207  0.37080228  0.11248833     0.09700
S133        S  0.24123722  0.43587455  0.14188166    -0.33600
S134        S  0.32524785  0.34319213  0.10194003    -0.33600
H135        H  0.33843755  0.34886670  0.12948932     0.27800
H136        H  0.23259396  0.43495660  0.11361407     0.27800
H137        H  0.31527642  0.45330562  0.14869700     0.18300
H138        H  0.25141039  0.32562178  0.09463579     0.18300
C139        C  0.08366300  0.40256726  0.12411024    -0.07500
C140        C  0.06537618  0.36713251  0.13521935    -0.18600
C141        C  0.08336075  0.34651679  0.13313633     0.09700
C142        C  0.12016612  0.36096269  0.11861344    -0.07400
C143        C  0.13774126  0.39587927  0.10674778    -0.18600
C144        C  0.11998410  0.41659429  0.10914364     0.09700
S145        S  0.05881259  0.30376540  0.15139569    -0.33600
S146        S  0.14472406  0.45982365  0.09148389    -0.33600
H147        H  0.11177536  0.45309766  0.08012140     0.27800
H148        H  0.09118558  0.31285211  0.16506930     0.27800
H149        H  0.03752606  0.35617286  0.14682976     0.18300
H150        H  0.16556257  0.40709883  0.09508023     0.18300
C151        C  0.12628706  0.25318056  0.37800335    -0.07500
C152        C  0.14076071  0.23135050  0.36289412    -0.18600
C153        C  0.12456418  0.19344763  0.36776809     0.09700
C154        C  0.09222315  0.17642412  0.38764648    -0.07400
C155        C  0.07728606  0.19817596  0.40218970    -0.18600
C156        C  0.09430877  0.23638560  0.39806628     0.09700
S157        S  0.14843150  0.16977263  0.34952966    -0.33600
S158        S  0.07559853  0.26257303  0.42078149    -0.33600
H159        H  0.11152583  0.29550926  0.42584113     0.27800
H160        H  0.15052797  0.15737244  0.37512493     0.27800
H161        H  0.16563131  0.24428392  0.34774531     0.18300
H162        H  0.05285208  0.18568174  0.41776464     0.18300
C163        C  0.24489545  0.37611284  0.37358200    -0.07500
C164        C  0.26878506  0.36706763  0.35480046    -0.18600
C165        C  0.30789812  0.38635908  0.35832515     0.09700
C166        C  0.32328467  0.41436253  0.38208340    -0.07400
C167        C  0.29934913  0.42456598  0.39994588    -0.18600
C168        C  0.26033508  0.40575923  0.39596297     0.09700
S169        S  0.33558158  0.37230935  0.33248652    -0.33600
S170        S  0.23000466  0.41736923  0.42118601    -0.33600
H171        H  0.25917792  0.44793782  0.43740677     0.27800
H172        H  0.36283002  0.40976478  0.32605942     0.27800
H173        H  0.25674755  0.34452088  0.33737886     0.18300
H174        H  0.31089384  0.44622517  0.41793933     0.18300
C175        C  0.08816140  0.40862772  0.36816311    -0.07500
C176        C  0.06642722  0.36889582  0.36777012    -0.18600
C177        C  0.08372171  0.34761803  0.36499338     0.09700
C178        C  0.12413188  0.36657318  0.36430953    -0.07400
C179        C  0.14568776  0.40616940  0.36305340    -0.18600
C180        C  0.12838758  0.42707470  0.36406595     0.09700
S181        S  0.05206568  0.29675043  0.36193562    -0.33600
S182        S  0.15977530  0.47686159  0.35933638    -0.33600
H183        H  0.13821734  0.47596807  0.33821105     0.27800
H184        H  0.07307546  0.29102739  0.33750052     0.27800
H185        H  0.03550059  0.35403516  0.36963534     0.18300
H186        H  0.17661989  0.42144529  0.36122417     0.18300
C187        C  0.37226013  0.12867177  0.22746512    -0.07500
C188        C  0.40610152  0.14205091  0.20936837    -0.18600
C189        C  0.42536654  0.12257248  0.20416188     0.09700
C190        C  0.41090874  0.08907218  0.21764527    -0.07400
C191        C  0.37744259  0.07591609  0.23604208    -0.18600
C192        C  0.35845947  0.09570140  0.24159557     0.09700
S193        S  0.46680179  0.14075884  0.17873691    -0.33600
S194        S  0.31824566  0.07851761  0.26813528    -0.33600
H195        H  0.32648105  0.11488574  0.28007908     0.27800
H196        H  0.45832251  0.10485723  0.16534317     0.27800
H197        H  0.41687649  0.16705018  0.19816202     0.18300
H198        H  0.36670246  0.05070762  0.24698590     0.18300
C199        C  0.37102912  0.24348182  0.22035434    -0.07500
C200        C  0.36168682  0.26736826  0.23900861    -0.18600
C201        C  0.38015701  0.30603701  0.23548008     0.09700
C202        C  0.40807421  0.32119477  0.21214602    -0.07400
C203        C  0.41804827  0.29718470  0.19406704    -0.18600
C204        C  0.39956986  0.25863020  0.19759310     0.09700
S205        S  0.36571574  0.33364877  0.26103263    -0.33600
S206        S  0.41179509  0.23000404  0.17092584    -0.33600
H207        H  0.37445643  0.19800842  0.16987629     0.27800
H208        H  0.40332664  0.36099573  0.26831907     0.27800
H209        H  0.33994766  0.25580732  0.25664489     0.18300
H210        H  0.43934120  0.30807352  0.17608643     0.18300
C211        C  0.17271468  0.08073676  0.21751579    -0.07500
C212        C  0.18781920  0.11442392  0.23621243    -0.18600
C213        C  0.22631671  0.13508054  0.24227868     0.09700
C214        C  0.25045680  0.12185616  0.22933903    -0.07400
C215        C  0.23462941  0.08673208  0.21244948    -0.18600
C216        C  0.19617269  0.06600906  0.20650565     0.09700
S217        S  0.24278974  0.17821519  0.26627279    -0.33600
S218        S  0.17927085  0.02146883  0.18425046    -0.33600
H219        H  0.14239685  0.00322876  0.19829558     0.27800
H220        H  0.27046075  0.17559815  0.27819253     0.27800
H221        H  0.17001199  0.12576557  0.24513880     0.18300
H222        H  0.25270031  0.07598084  0.20272216     0.18300
C223        C  0.37512752  0.12972879  0.47710461    -0.07500
C224        C  0.35865194  0.09697641  0.49179545    -0.18600
C225        C  0.37703244  0.07695843  0.49119328     0.09700
C226        C  0.41244063  0.08934071  0.47502069    -0.07400
C227        C  0.42930105  0.12239286  0.46089492    -0.18600
C228        C  0.41099404  0.14231627  0.46137853     0.09700
S229        S  0.35474215  0.03713906  0.51264039    -0.33600
S230        S  0.43355400  0.18130197  0.43920777    -0.33600
H231        H  0.40003185  0.16685457  0.42506389     0.27800
H232        H  0.38923894  0.04436826  0.52148883     0.27800
H233        H  0.33155792  0.08726329  0.00436130     0.18300
H234        H  0.45627690  0.13188476  0.44816486     0.18300
C235        C  0.37454288  0.24545963  0.47185395    -0.07500
C236        C  0.37791383  0.27318785  0.99433967    -0.18600
C237        C  0.39712803  0.31157540  0.48932652     0.09700
C238        C  0.41257947  0.32233872  0.46092498    -0.07400
C239        C  0.40976482  0.29426533  0.43880506    -0.18600
C240        C  0.39045434  0.25616719  0.44378166     0.09700
S241        S  0.40131714  0.34494356  0.02015060    -0.33600
S242        S  0.38547482  0.22260751  0.41282204    -0.33600
H243        H  0.34969277  0.19237474  0.42210487     0.27800
H244        H  0.44004506  0.37140837  0.51304604     0.27800
H245        H  0.36577678  0.26490182  0.01597132     0.18300
H246        H  0.42116501  0.30160953  0.41689131     0.18300
C247        C  0.25376169  0.12449392  0.47869053    -0.07500
C248        C  0.23771911  0.08913273  0.46203758    -0.18600
C249        C  0.19950701  0.06901496  0.45531179     0.09700
C250        C  0.17665264  0.08471033  0.46497316    -0.07400
C251        C  0.19192784  0.11885154  0.48311420    -0.18600
C252        C  0.22996697  0.13869731  0.49026943     0.09700
S253        S  0.18174555  0.02350008  0.43444702    -0.33600
S254        S  0.24614963  0.18184423  0.51421646    -0.33600
H255        H  0.27125367  0.17740135  0.52809421     0.27800
H256        H  0.14453671  0.00672565  0.44792798     0.27800
H257        H  0.25536060  0.07753528  0.95331512     0.18300
H258        H  0.17446818  0.13086595  0.49109841     0.18300
C259        C  0.35416868  0.14964352  0.47864769     0.78900
N260        N  0.37331247  0.18777832  0.47735715    -0.79400
C261        C  0.35394824  0.20558403  0.47774556     0.81300
N262        N  0.31526466  0.18517327  0.47909030    -0.79400
C263        C  0.29567466  0.14712081  0.48079106     0.81400
N264        N  0.31531959  0.12947847  0.48032201    -0.81100
C265        C  0.35093698  0.14806142  0.72914128     0.78900
N266        N  0.31217776  0.12774708  0.73080702    -0.79400
C267        C  0.29237434  0.14497121  0.73047887     0.81300
N268        N  0.31168231  0.18269071  0.72740596    -0.79400
C269        C  0.35043901  0.20311098  0.72512829     0.81400
N270        N  0.36995103  0.18573904  0.72597962    -0.81100
C271        C  0.14519951  0.34749374  0.86646310     0.78900
N272        N  0.12666578  0.30995930  0.86999565    -0.79400
C273        C  0.14638517  0.29356252  0.87335704     0.81300
N274        N  0.18497965  0.31493412  0.87349431    -0.79400
C275        C  0.20368255  0.35256767  0.87066150     0.81400
N276        N  0.18382667  0.36864514  0.86716728    -0.81100
C277        C  0.14207988  0.34194674  0.61604443     0.78900
N278        N  0.12440671  0.30364559  0.61573194    -0.79400
C279        C  0.14537955  0.28730288  0.61455470     0.81300
N280        N  0.18404293  0.30954385  0.61388103    -0.79400
C281        C  0.20211273  0.34776140  0.61391649     0.81400
N282        N  0.18083583  0.36360656  0.61503173    -0.81100
N283        N  0.08335933  0.05798789  0.95204220    -0.07500
N284        N  0.11027229  0.07201860  0.97037653    -0.59600
N285        N  0.06104000  0.08143423  0.89632629    -0.07200
N286        N  0.07689000  0.10905925  0.87914042    -0.61700
N287        N  0.05008944  0.09223420  0.92178036    -0.06800
N288        N  0.05820684  0.12732167  0.92244887    -0.59600
N289        N  0.09430304  0.04693205  0.92668704    -0.06400
N290        N  0.12885599  0.05305753  0.92730312    -0.62100
C291        C  0.13825585  0.06823752  0.95480494     0.94700
C292        C  0.07488599  0.13750453  0.89574578     0.94500
N293        N  0.48999370  0.47465785  0.85243871    -0.07700
N294        N  0.47408311  0.46695412  0.82781716    -0.60200
N295        N  0.05655946  0.47332409  0.88314299    -0.05800
N296        N  0.08514433  0.46759240  0.87811622    -0.61400
N297        N  0.02375018  0.44079616  0.88252418    -0.07700
N298        N  0.02937407  0.41225037  0.87683438    -0.60400
N299        N  0.02288211  0.00722791  0.85266169    -0.05400
N300        N  0.03013032  0.02243410  0.82809724    -0.61500
Mn301      Mn  0.05959002  0.02766444  0.88910129     1.18400
C302        C  0.49938951  0.49701631  0.81299689     0.96800
C303        C  0.06789599  0.42941167  0.87399670     0.97400
N304        N  0.47561721  0.05596954  0.96361777    -0.07700
N305        N  0.47045490  0.08482679  0.96819203    -0.64000
N306        N  0.47584929  0.48899626  0.99344918    -0.06500
N307        N  0.46821085  0.47307504  0.51766491    -0.64700
N308        N  0.00890249  0.02135723  0.99390958    -0.07200
N309        N  0.02457977  0.02826812  0.51850640    -0.64300
N310        N  0.44256084  0.02362542  0.96341397    -0.06100
N311        N  0.41414641  0.02976764  0.96795446    -0.65000
Mn312      Mn  0.02986688  0.05773673  0.95840525     1.10700
C313        C  0.43202226  0.06808067  0.97110428     0.98000
C314        C  0.49887096  0.49786993  0.53290887     0.98100
N315        N  0.45006812  0.40486779  0.92509906    -0.07200
N316        N  0.44441882  0.37082750  0.92526087    -0.62600
N317        N  0.40561484  0.45032142  0.91977731    -0.06500
N318        N  0.37155887  0.44516047  0.91902624    -0.59300
N319        N  0.41629635  0.43884450  0.89454594    -0.07900
N320        N  0.38960208  0.42548515  0.87615583    -0.62200
N321        N  0.43847508  0.41547089  0.95031756    -0.06800
N322        N  0.42443355  0.38864015  0.96807569    -0.59400
Mn323      Mn  0.46954357  0.43880896  0.88812034     1.20200
Mn324      Mn  0.43961785  0.46914275  0.95730664     1.10100
Cl325      Cl  0.49968974  0.49837751  0.92321121    -0.87300
C326        C  0.42871576  0.36102905  0.95228171     0.95000
C327        C  0.36189912  0.42981462  0.89160687     0.94800
N328        N  0.08075001  0.05644040  0.70284194    -0.07500
N329        N  0.10696434  0.07003069  0.72176164    -0.59600
N330        N  0.06041720  0.07831689  0.64477416    -0.07200
N331        N  0.07543304  0.10461874  0.62643243    -0.61700
N332        N  0.04901284  0.09008952  0.66956835    -0.06800
N333        N  0.05610613  0.12459579  0.66871689    -0.59600
N334        N  0.09179430  0.04421888  0.67811734    -0.06800
N335        N  0.12559186  0.04911486  0.67967761    -0.62100
C336        C  0.13454181  0.06471976  0.70711504     0.94700
C337        C  0.07197762  0.13301463  0.64158754     0.94500
N338        N  0.49079746  0.47140358  0.60209551    -0.07700
N339        N  0.47605873  0.46373668  0.57695069    -0.60200
N340        N  0.05492680  0.46943771  0.63588103    -0.05800
N341        N  0.08289500  0.46270562  0.63226719    -0.61400
N342        N  0.02166665  0.43734957  0.63532119    -0.07700
N343        N  0.02620568  0.40809934  0.63132211    -0.60400
N344        N  0.02404870  0.00354022  0.60256341    -0.05400
N345        N  0.03276219  0.01858631  0.57777939    -0.61500
Mn346      Mn  0.05879451  0.02434158  0.63980231     1.18400
C347        C  0.50256374  0.49342874  0.56218268     0.96800
C348        C  0.06454568  0.42433764  0.62925979     0.97400
N349        N  0.47375226  0.05558504  0.71020855    -0.07700
N350        N  0.46895568  0.08458454  0.71278510    -0.64000
N351        N  0.47225683  0.48994443  0.74345920    -0.06500
N352        N  0.46434734  0.47519111  0.76833571    -0.64700
N353        N  0.00536282  0.02229162  0.74364631    -0.07200
N354        N  0.02073653  0.03031550  0.76855887    -0.64300
N355        N  0.44054252  0.02337231  0.71002271    -0.06100
N356        N  0.41238853  0.02976482  0.71255386    -0.65000
Mn357      Mn  0.02766343  0.05705252  0.70716163     1.10700
C358        C  0.43060450  0.06803366  0.71399213     0.98000
C359        C  0.49487370  0.50072018  0.78361467     0.98100
N360        N  0.44705346  0.40346583  0.67591306    -0.07200
N361        N  0.44081399  0.36930136  0.67650306    -0.62600
N362        N  0.40345893  0.44834256  0.66767418    -0.06500
N363        N  0.36866675  0.44119740  0.66621950    -0.59300
N364        N  0.41515566  0.43676764  0.64292046    -0.07900
N365        N  0.38856873  0.42141728  0.62417054    -0.62200
N366        N  0.43515894  0.41458006  0.70074741    -0.06800
N367        N  0.42020819  0.38781903  0.71867934    -0.59400
Mn368      Mn  0.46822632  0.43646897  0.63852986     1.20200
Mn369      Mn  0.43680227  0.46860386  0.70616012     1.10100
Cl370      Cl  0.49784361  0.49662329  0.67292318    -0.87300
C371        C  0.42420047  0.35976770  0.70332348     0.95000
C372        C  0.35978352  0.42444355  0.63895998     0.94800
C373        C  0.09198625  0.17161354  0.63282475    -0.07500
C374        C  0.07638761  0.18018138  0.61266177    -0.18600
C375        C  0.09347321  0.21753193  0.60553828     0.09700
C376        C  0.12682452  0.24680716  0.61894257    -0.07400
C377        C  0.14252541  0.23772458  0.63870923    -0.18600
C378        C  0.12556892  0.20066124  0.64576903     0.09700
S379        S  0.07165067  0.22576502  0.57913383    -0.33600
S380        S  0.14767241  0.19253988  0.67211351    -0.33600
H381        H  0.13835148  0.15594575  0.66003578     0.27800
H382        H  0.10605203  0.25518052  0.56712959     0.27800
H383        H  0.05053215  0.15778918  0.60274586     0.18300
H384        H  0.16784652  0.25990271  0.64936771     0.18300
C385        C  0.32133139  0.40676110  0.62861139    -0.07500
C386        C  0.30133083  0.42544447  0.63671539    -0.18600
C387        C  0.26342688  0.40865355  0.63003137     0.09700
C388        C  0.24424768  0.37136548  0.61570728    -0.07400
C389        C  0.26525751  0.35384314  0.60603395    -0.18600
C390        C  0.30320179  0.37080231  0.61248626     0.09700
S391        S  0.24123587  0.43587330  0.64188083    -0.33600
S392        S  0.32524809  0.34319277  0.60193699    -0.33600
H393        H  0.33843677  0.34886564  0.62948639     0.27800
H394        H  0.23259252  0.43495557  0.61361332     0.27800
H395        H  0.31527490  0.45330434  0.64869677     0.18300
H396        H  0.25141052  0.32562217  0.59463288     0.18300
C397        C  0.08366127  0.40256534  0.62411037    -0.07500
C398        C  0.06537495  0.36713080  0.63521975    -0.18600
C399        C  0.08335986  0.34651535  0.63313661     0.09700
C400        C  0.12016492  0.36096120  0.61861318    -0.07400
C401        C  0.13773952  0.39587754  0.60674726    -0.18600
C402        C  0.11998212  0.41659235  0.60914333     0.09700
S403        S  0.05881273  0.30376454  0.65139663    -0.33600
S404        S  0.14472150  0.45982145  0.59148327    -0.33600
H405        H  0.11177239  0.45309533  0.58012136     0.27800
H406        H  0.09118652  0.31285164  0.66506931     0.27800
H407        H  0.03752508  0.35617120  0.64683053     0.18300
H408        H  0.16556062  0.40709709  0.59507935     0.18300
C409        C  0.12628897  0.25318015  0.87800229    -0.07500
C410        C  0.14076192  0.23134981  0.86289244    -0.18600
C411        C  0.12456515  0.19344683  0.86776621     0.09700
C412        C  0.09222458  0.17642355  0.88764504    -0.07400
C413        C  0.07728810  0.19817570  0.90218880    -0.18600
C414        C  0.09431111  0.23638543  0.89806560     0.09700
S415        S  0.14843165  0.16977138  0.84952695    -0.33600
S416        S  0.07560186  0.26257330  0.92078153    -0.33600
H417        H  0.11152944  0.29550944  0.92584049     0.27800
H418        H  0.15052929  0.15737161  0.87512201     0.27800
H419        H  0.16563220  0.24428310  0.84774331     0.18300
H420        H  0.05285446  0.18568166  0.91776406     0.18300
C421        C  0.24489742  0.37611248  0.87358186    -0.07500
C422        C  0.26878715  0.36706765  0.85480010    -0.18600
C423        C  0.30790021  0.38635913  0.85832479     0.09700
C424        C  0.32328665  0.41436215  0.88208331    -0.07400
C425        C  0.29935095  0.42456512  0.89994612    -0.18600
C426        C  0.26033691  0.40575842  0.89596314     0.09700
S427        S  0.33558381  0.37231007  0.83248569    -0.33600
S428        S  0.23000632  0.41736795  0.92118639    -0.33600
H429        H  0.25917959  0.44793693  0.93740689     0.27800
H430        H  0.36283211  0.40976574  0.82605905     0.27800
H431        H  0.25674975  0.34452126  0.83737826     0.18300
H432        H  0.31089551  0.44622390  0.91793980     0.18300
C433        C  0.08816327  0.40862689  0.86816118    -0.07500
C434        C  0.06642916  0.36889499  0.86776824    -0.18600
C435        C  0.08372376  0.34761732  0.86499175     0.09700
C436        C  0.12413393  0.36657259  0.86430812    -0.07400
C437        C  0.14568972  0.40616875  0.86305180    -0.18600
C438        C  0.12838947  0.42707394  0.86406409     0.09700
S439        S  0.05206787  0.29674969  0.86193412    -0.33600
S440        S  0.15977715  0.47686078  0.85933436    -0.33600
H441        H  0.13821914  0.47596711  0.83820899     0.27800
H442        H  0.07307777  0.29102664  0.83749911     0.27800
H443        H  0.03550250  0.35403426  0.86963336     0.18300
H444        H  0.17662184  0.42144470  0.86122266     0.18300
C445        C  0.37225854  0.12867105  0.72746527    -0.07500
C446        C  0.40610086  0.14205138  0.70936952    -0.18600
C447        C  0.42536614  0.12257322  0.70416287     0.09700
C448        C  0.41090768  0.08907196  0.71764511    -0.07400
C449        C  0.37744067  0.07591473  0.73604102    -0.18600
C450        C  0.35845723  0.09569973  0.74159465     0.09700
S451        S  0.46680258  0.14076123  0.67873906    -0.33600
S452        S  0.31824208  0.07851414  0.76813314    -0.33600
H453        H  0.32647711  0.11488172  0.78007828     0.27800
H454        H  0.45832352  0.10486028  0.66534386     0.27800
H455        H  0.41687643  0.16705140  0.69816401     0.18300
H456        H  0.36669998  0.05070549  0.74698400     0.18300
C457        C  0.37102765  0.24348136  0.72035484    -0.07500
C458        C  0.36168162  0.26736643  0.73900714    -0.18600
C459        C  0.38015122  0.30603517  0.73547883     0.09700
C460        C  0.40807199  0.32119443  0.71214710    -0.07400
C461        C  0.41804982  0.29718588  0.69407024    -0.18600
C462        C  0.39957183  0.25863132  0.69759592     0.09700
S463        S  0.36570400  0.33364478  0.76102805    -0.33600
S464        S  0.41180200  0.23000712  0.67093073    -0.33600
H465        H  0.37446377  0.19801129  0.66987742     0.27800
H466        H  0.40331272  0.36099209  0.76831931     0.27800
H467        H  0.33993974  0.25580438  0.75664162     0.18300
H468        H  0.43934547  0.30807597  0.67609139     0.18300
C469        C  0.17271284  0.08073605  0.71751644    -0.07500
C470        C  0.18781782  0.11442413  0.73621200    -0.18600
C471        C  0.22631539  0.13508082  0.74227806     0.09700
C472        C  0.25045509  0.12185557  0.72933926    -0.07400
C473        C  0.23462716  0.08673058  0.71245090    -0.18600
C474        C  0.19617036  0.06600752  0.70650728     0.09700
S475        S  0.24278892  0.17821667  0.76627078    -0.33600
S476        S  0.17926772  0.02146616  0.68425355    -0.33600
H477        H  0.14239362  0.00322738  0.69829859     0.27800
H478        H  0.27045943  0.17559984  0.77819150     0.27800
H479        H  0.17001094  0.12576642  0.74513759     0.18300
H480        H  0.25269768  0.07597862  0.70272429     0.18300
C481        C  0.37512962  0.12972836  0.97710312    -0.07500
C482        C  0.35865445  0.09697655  0.99179457    -0.18600
C483        C  0.37703524  0.07695894  0.99119281     0.09700
C484        C  0.41244318  0.08934093  0.97501991    -0.07400
C485        C  0.42930321  0.12239255  0.96089354    -0.18600
C486        C  0.41099597  0.14231567  0.96137683     0.09700
S487        S  0.35474579  0.03714055  0.01264088    -0.33600
S488        S  0.43355551  0.18130086  0.93920556    -0.33600
H489        H  0.40003290  0.16685378  0.92506239     0.27800
H490        H  0.38924298  0.04437023  0.02148888     0.27800
H491        H  0.33155522  0.08726290  0.50436198     0.18300
H492        H  0.45627888  0.13188421  0.94816328     0.18300
C493        C  0.37454488  0.24545899  0.97185226    -0.07500
C494        C  0.37791125  0.27318850  0.49434116    -0.18600
C495        C  0.39713078  0.31157480  0.98932517     0.09700
C496        C  0.41258182  0.32233820  0.96092360    -0.07400
C497        C  0.40976659  0.29426479  0.93880346    -0.18600
C498        C  0.39045592  0.25616659  0.94377991     0.09700
S499        S  0.40131356  0.34494416  0.52015174    -0.33600
S500        S  0.38547566  0.22260688  0.91282014    -0.33600
H501        H  0.34969327  0.19237459  0.92210301     0.27800
H502        H  0.44004855  0.37140761  0.01304449     0.27800
H503        H  0.36577386  0.26490253  0.51597278     0.18300
H504        H  0.42116647  0.30160904  0.91688966     0.18300
C505        C  0.25376372  0.12449323  0.97868849    -0.07500
C506        C  0.23772099  0.08913187  0.96203576    -0.18600
C507        C  0.19950884  0.06901409  0.95531008     0.09700
C508        C  0.17665461  0.08470964  0.96497135    -0.07400
C509        C  0.19192997  0.11885103  0.98311217    -0.18600
C510        C  0.22996912  0.13869678  0.99026731     0.09700
S511        S  0.18174709  0.02349897  0.93444562    -0.33600
S512        S  0.24615191  0.18184389  0.01421414    -0.33600
H513        H  0.27125599  0.17740113  0.02809195     0.27800
H514        H  0.14453828  0.00672486  0.94792661     0.27800
H515        H  0.25535881  0.07753627  0.45331686     0.18300
H516        H  0.17447041  0.13086556  0.99109630     0.18300
C517        C  0.35417135  0.64964324  0.97864645     0.78900
N518        N  0.37331514  0.68777802  0.97735583    -0.79400
C519        C  0.35395092  0.70558364  0.97774385     0.81300
N520        N  0.31526737  0.68517283  0.97908829    -0.79400
C521        C  0.29567733  0.64712040  0.98078915     0.81400
N522        N  0.31532225  0.62947809  0.98032048    -0.81100
C523        C  0.35093820  0.64806190  0.22914085     0.78900
N524        N  0.31217900  0.62774760  0.23080683    -0.79400
C525        C  0.29237556  0.64497169  0.23047870     0.81300
N526        N  0.31168345  0.68269119  0.22740575    -0.79400
C527        C  0.35044017  0.70311139  0.22512781     0.81400
N528        N  0.36995225  0.68573944  0.22597890    -0.81100
C529        C  0.14519790  0.84749454  0.36646449     0.78900
N530        N  0.12666413  0.80996016  0.36999731    -0.79400
C531        C  0.14638353  0.79356331  0.37335848     0.81300
N532        N  0.18497804  0.81493478  0.37349524    -0.79400
C533        C  0.20368100  0.85256826  0.37066215     0.81400
N534        N  0.18382512  0.86864579  0.36716811    -0.81100
C535        C  0.14208069  0.84194818  0.11604581     0.78900
N536        N  0.12440731  0.80364702  0.11573327    -0.79400
C537        C  0.14537993  0.78730414  0.11455635     0.81300
N538        N  0.18404328  0.80954491  0.11388301    -0.79400
C539        C  0.20211330  0.84776246  0.11391848     0.81400
N540        N  0.18083665  0.86360783  0.11503342    -0.81100
N541        N  0.08335679  0.55798858  0.45204358    -0.07500
N542        N  0.11026968  0.57201966  0.47037805    -0.59600
N543        N  0.06103798  0.58143477  0.39632742    -0.07200
N544        N  0.07688848  0.60906005  0.37914175    -0.61700
N545        N  0.05008692  0.59223450  0.42178138    -0.06800
N546        N  0.05820449  0.62732205  0.42245002    -0.59600
N547        N  0.09430082  0.54693282  0.42668854    -0.06400
N548        N  0.12885389  0.55305870  0.42730482    -0.62100
C549        C  0.13825352  0.56823886  0.45480664     0.94700
C550        C  0.07488425  0.63750521  0.39574712     0.94500
N551        N  0.48999265  0.97465834  0.35243932    -0.07700
N552        N  0.47408275  0.96695435  0.32781739    -0.60200
N553        N  0.05655769  0.97332476  0.38314466    -0.05800
N554        N  0.08514267  0.96759325  0.37811805    -0.61400
N555        N  0.02374847  0.94079676  0.38252569    -0.07700
N556        N  0.02937253  0.91225109  0.37683593    -0.60400
N557        N  0.02288114  0.50722855  0.35266248    -0.05400
N558        N  0.03013008  0.52243460  0.32809785    -0.61500
Mn559      Mn  0.05958833  0.52766511  0.38910250     1.18400
C560        C  0.49938948  0.99701650  0.31299718     0.96800
C561        C  0.06789446  0.92941254  0.37399846     0.97400
N562        N  0.47561435  0.55596971  0.46361895    -0.07700
N563        N  0.47045192  0.58482688  0.46819309    -0.64000
N564        N  0.47584684  0.98899623  0.49344973    -0.06500
N565        N  0.46821318  0.97307559  0.01766411    -0.64700
N566        N  0.00889943  0.52135703  0.49391022    -0.07200
N567        N  0.02458184  0.52826856  0.01850538    -0.64300
N568        N  0.44255804  0.52362553  0.46341501    -0.06100
N569        N  0.41414352  0.52976763  0.46795531    -0.65000
Mn570      Mn  0.02986399  0.55773683  0.45840613     1.10700
C571        C  0.43201927  0.56808066  0.47110514     0.98000
C572        C  0.49887307  0.99787076  0.03290818     0.98100
N573        N  0.45006639  0.90486803  0.42509965    -0.07200
N574        N  0.44441703  0.87082771  0.42526155    -0.62600
N575        N  0.40561301  0.95032135  0.41977751    -0.06500
N576        N  0.37155697  0.94516013  0.41902628    -0.59300
N577        N  0.41629479  0.93884456  0.39454620    -0.07900
N578        N  0.38960062  0.92548502  0.37615596    -0.62200
N579        N  0.43847313  0.91547110  0.45031806    -0.06800
N580        N  0.42443143  0.88864037  0.46807621    -0.59400
Mn581      Mn  0.46954215  0.93880934  0.38812095     1.20200
Mn582      Mn  0.43961562  0.96914274  0.45730704     1.10100
Cl583      Cl  0.49968776  0.99837786  0.42321194    -0.87300
C584        C  0.42871374  0.86102929  0.45228236     0.95000
C585        C  0.36189747  0.92981424  0.39160690     0.94800
N586        N  0.08075141  0.55644108  0.20284145    -0.07500
N587        N  0.10696576  0.57003105  0.22176109    -0.59600
N588        N  0.06041792  0.57831794  0.14477414    -0.07200
N589        N  0.07543327  0.60461988  0.12643253    -0.61700
N590        N  0.04901362  0.59009027  0.16956850    -0.06800
N591        N  0.05610644  0.62459640  0.16871729    -0.59600
N592        N  0.09179570  0.54421994  0.17811666    -0.06800
N593        N  0.12559330  0.54911591  0.17967673    -0.62100
C594        C  0.13454327  0.56472037  0.20711424     0.94700
C595        C  0.07197759  0.63301548  0.14158791     0.94500
N596        N  0.49079871  0.97140508  0.10209521    -0.07700
N597        N  0.47606025  0.96373804  0.07695026    -0.60200
N598        N  0.05492830  0.96943964  0.13588127    -0.05800
N599        N  0.08289657  0.96270768  0.13226780    -0.61400
N600        N  0.02166822  0.93735145  0.13532126    -0.07700
N601        N  0.02620733  0.90810130  0.13132240    -0.60400
N602        N  0.02404967  0.50354173  0.10256302    -0.05400
N603        N  0.03276333  0.51858769  0.07777894    -0.61500
Mn604      Mn  0.05879569  0.52434289  0.13980176     1.18400
C605        C  0.50256533  0.99343009  0.06218229     0.96800
C606        C  0.06454732  0.92433970  0.12926040     0.97400
N607        N  0.47375307  0.55558542  0.21020985    -0.07700
N608        N  0.46895637  0.58458484  0.21278627    -0.64000
N609        N  0.47225826  0.98994433  0.24345896    -0.06500
N610        N  0.46434840  0.97519101  0.26833550    -0.64700
N611        N  0.00536439  0.52229182  0.24364612    -0.07200
N612        N  0.02073778  0.53031573  0.26855885    -0.64300
N613        N  0.44054338  0.52337262  0.21002384    -0.06100
N614        N  0.41238931  0.52976498  0.21255479    -0.65000
Mn615      Mn  0.02766469  0.55705302  0.20716160     1.10700
C616        C  0.43060519  0.56803382  0.21399311     0.98000
C617        C  0.49487445  0.00072014  0.28361470     0.98100
N618        N  0.44705532  0.90346650  0.17591223    -0.07200
N619        N  0.44081608  0.86930206  0.17650195    -0.62600
N620        N  0.40346038  0.94834316  0.16767430    -0.06500
N621        N  0.36866813  0.94119796  0.16622003    -0.59300
N622        N  0.41515690  0.93676843  0.14292038    -0.07900
N623        N  0.38856967  0.92141809  0.12417070    -0.62200
N624        N  0.43516084  0.91458044  0.20074673    -0.06800
N625        N  0.42021032  0.88781923  0.21867847    -0.59400
Mn626      Mn  0.46822780  0.93647004  0.13852929     1.20200
Mn627      Mn  0.43680379  0.96860412  0.20615999     1.10100
Cl628      Cl  0.49784500  0.99662401  0.17292298    -0.87300
C629        C  0.42420277  0.85976810  0.20332238     0.95000
C630        C  0.35978457  0.92444427  0.13896055     0.94800
C631        C  0.09198621  0.67161454  0.13282550    -0.07500
C632        C  0.07638810  0.68018264  0.11266228    -0.18600
C633        C  0.09347383  0.71753334  0.10553912     0.09700
C634        C  0.12682463  0.74680841  0.11894407    -0.07400
C635        C  0.14252493  0.73772560  0.13871102    -0.18600
C636        C  0.12556842  0.70066211  0.14577038     0.09700
S637        S  0.07165222  0.72576687  0.07913421    -0.33600
S638        S  0.14767147  0.69254026  0.17211490    -0.33600
H639        H  0.13835173  0.65594680  0.16003621     0.27800
H640        H  0.10605392  0.75518262  0.06713057     0.27800
H641        H  0.05053301  0.65779052  0.10274588     0.18300
H642        H  0.16784569  0.75990362  0.14936994     0.18300
C643        C  0.32133222  0.90676177  0.12861247    -0.07500
C644        C  0.30133186  0.92544533  0.13671666    -0.18600
C645        C  0.26342771  0.90865440  0.13003316     0.09700
C646        C  0.24424823  0.87136625  0.11570925    -0.07400
C647        C  0.26525776  0.85384358  0.10603591    -0.18600
C648        C  0.30320214  0.87080267  0.11248787     0.09700
S649        S  0.24123679  0.93587412  0.14188319    -0.33600
S650        S  0.32524801  0.84319269  0.10193892    -0.33600
H651        H  0.33843765  0.84886661  0.12948812     0.27800
H652        H  0.23259357  0.93495705  0.11361579     0.27800
H653        H  0.31527623  0.95330532  0.14869781     0.18300
H654        H  0.25141048  0.82562246  0.09463511     0.18300
C655        C  0.08366288  0.90256743  0.12411129    -0.07500
C656        C  0.06537579  0.86713236  0.13521994    -0.18600
C657        C  0.08336030  0.84651657  0.13313680     0.09700
C658        C  0.12016594  0.86096280  0.11861431    -0.07400
C659        C  0.13774133  0.89587970  0.10674910    -0.18600
C660        C  0.11998422  0.91659474  0.10914505     0.09700
S661        S  0.05881162  0.80376455  0.15139542    -0.33600
S662        S  0.14472457  0.95982449  0.09148578    -0.33600
H663        H  0.11177619  0.95309849  0.08012272     0.27800
H664        H  0.09118417  0.81285093  0.16506948     0.27800
H665        H  0.03752548  0.85617247  0.14683001     0.18300
H666        H  0.16556280  0.90709950  0.09508179     0.18300
C667        C  0.12628738  0.75318095  0.37800382    -0.07500
C668        C  0.14076071  0.73135077  0.36289429    -0.18600
C669        C  0.12456399  0.69344780  0.36776807     0.09700
C670        C  0.09222308  0.67642436  0.38764658    -0.07400
C671        C  0.07728631  0.69817635  0.40219009    -0.18600
C672        C  0.09430922  0.73638606  0.39806685     0.09700
S673        S  0.14843089  0.66977257  0.34952923    -0.33600
S674        S  0.07559934  0.76257363  0.42078235    -0.33600
H675        H  0.11152676  0.79550977  0.42584183     0.27800
H676        H  0.15052781  0.65737246  0.37512437     0.27800
H677        H  0.16563119  0.74428414  0.34774538     0.18300
H678        H  0.05285241  0.68568218  0.41776513     0.18300
C679        C  0.24489597  0.87611292  0.37358199    -0.07500
C680        C  0.26878499  0.86706628  0.35480108    -0.18600
C681        C  0.30789802  0.88635726  0.35832567     0.09700
C682        C  0.32328515  0.91436183  0.38208317    -0.07400
C683        C  0.29935023  0.92456661  0.39994503    -0.18600
C684        C  0.26033620  0.90576028  0.39596222     0.09700
S685        S  0.33558057  0.87230526  0.33248812    -0.33600
S686        S  0.23000659  0.91737218  0.42118451    -0.33600
H687        H  0.25918017  0.94794046  0.43740521     0.27800
H688        H  0.36282914  0.90975988  0.32605919     0.27800
H689        H  0.25674701  0.84451872  0.33738010     0.18300
H690        H  0.31089542  0.94622660  0.41793790     0.18300
C691        C  0.08816182  0.90862788  0.36816306    -0.07500
C692        C  0.06642769  0.86889600  0.36777016    -0.18600
C693        C  0.08372223  0.84761830  0.36499360     0.09700
C694        C  0.12413240  0.86657352  0.36430982    -0.07400
C695        C  0.14568824  0.90616971  0.36305358    -0.18600
C696        C  0.12838801  0.92707493  0.36406595     0.09700
S697        S  0.05206625  0.79675070  0.36193601    -0.33600
S698        S  0.15977566  0.97686177  0.35933616    -0.33600
H699        H  0.13821758  0.97596806  0.33821083     0.27800
H700        H  0.07307598  0.79102758  0.33750091     0.27800
H701        H  0.03550105  0.85403530  0.36963535     0.18300
H702        H  0.17662039  0.92144565  0.36122440     0.18300
C703        C  0.37225963  0.62867146  0.22746499    -0.07500
C704        C  0.40610099  0.64205050  0.20936823    -0.18600
C705        C  0.42536601  0.62257208  0.20416191     0.09700
C706        C  0.41090831  0.58907198  0.21764556    -0.07400
C707        C  0.37744213  0.57591596  0.23604233    -0.18600
C708        C  0.35845892  0.59570118  0.24159557     0.09700
S709        S  0.46680109  0.64075808  0.17873676    -0.33600
S710        S  0.31824484  0.57851727  0.26813504    -0.33600
H711        H  0.32648012  0.61488536  0.28007885     0.27800
H712        H  0.45832173  0.60485633  0.16534334     0.27800
H713        H  0.41687592  0.66704962  0.19816173     0.18300
H714        H  0.36670202  0.55070758  0.24698626     0.18300
C715        C  0.37102882  0.74348156  0.22035388    -0.07500
C716        C  0.36168628  0.76736795  0.23900799    -0.18600
C717        C  0.38015659  0.80603673  0.23547953     0.09700
C718        C  0.40807415  0.82119461  0.21214570    -0.07400
C719        C  0.41804848  0.79718462  0.19406692    -0.18600
C720        C  0.39956999  0.75863008  0.19759292     0.09700
S721        S  0.36571502  0.83364843  0.26103186    -0.33600
S722        S  0.41179567  0.73000408  0.17092587    -0.33600
H723        H  0.37445703  0.69800851  0.16987592     0.27800
H724        H  0.40332579  0.86099522  0.26831873     0.27800
H725        H  0.33994685  0.75580695  0.25664409     0.18300
H726        H  0.43934170  0.80807354  0.17608651     0.18300
C727        C  0.17271430  0.58073641  0.21751561    -0.07500
C728        C  0.18781878  0.61442358  0.23621224    -0.18600
C729        C  0.22631629  0.63508022  0.24227850     0.09700
C730        C  0.25045639  0.62185587  0.22933883    -0.07400
C731        C  0.23462900  0.58673172  0.21244937    -0.18600
C732        C  0.19617227  0.56600865  0.20650557     0.09700
S733        S  0.24278928  0.67821478  0.26627269    -0.33600
S734        S  0.17927035  0.52146830  0.18425052    -0.33600
H735        H  0.14239628  0.50322839  0.19829553     0.27800
H736        H  0.27046043  0.67559782  0.27819229     0.27800
H737        H  0.17001158  0.62576524  0.24513857     0.18300
H738        H  0.25269990  0.57598045  0.20272209     0.18300
C739        C  0.37512669  0.62972856  0.47710475    -0.07500
C740        C  0.35865192  0.59697704  0.49179651    -0.18600
C741        C  0.37703262  0.57695925  0.49119435     0.09700
C742        C  0.41244011  0.58934084  0.47502084    -0.07400
C743        C  0.42929969  0.62239208  0.46089406    -0.18600
C744        C  0.41099245  0.64231526  0.46137763     0.09700
S745        S  0.35474365  0.53714110  0.51264263    -0.33600
S746        S  0.43355101  0.68129960  0.43920558    -0.33600
H747        H  0.40002758  0.66685227  0.42506345     0.27800
H748        H  0.38924109  0.54437067  0.52149002     0.27800
H749        H  0.33155895  0.58726402  0.00436231     0.18300
H750        H  0.45627495  0.63188336  0.44816327     0.18300
C751        C  0.37454275  0.74545955  0.47185372    -0.07500
C752        C  0.37791432  0.77318808  0.99433967    -0.18600
C753        C  0.39712947  0.81157562  0.48932622     0.09700
C754        C  0.41257972  0.82233852  0.46092442    -0.07400
C755        C  0.40976366  0.79426475  0.43880434    -0.18600
C756        C  0.39045300  0.75616666  0.44378113     0.09700
S757        S  0.40131716  0.84494374  0.02015048    -0.33600
S758        S  0.38547185  0.72260649  0.41282148    -0.33600
H759        H  0.34969000  0.69237413  0.42210508     0.27800
H760        H  0.44004819  0.87140877  0.51304465     0.27800
H761        H  0.36577724  0.76490207  0.01597133     0.18300
H762        H  0.42116290  0.80160866  0.41689038     0.18300
C763        C  0.25376119  0.62449445  0.47869081    -0.07500
C764        C  0.23771840  0.58913301  0.46203821    -0.18600
C765        C  0.19950634  0.56901535  0.45531233     0.09700
C766        C  0.17665221  0.58471109  0.46497324    -0.07400
C767        C  0.19192763  0.61885266  0.48311385    -0.18600
C768        C  0.22996671  0.63869832  0.49026918     0.09700
S769        S  0.18174459  0.52350011  0.43444806    -0.33600
S770        S  0.24614959  0.68184573  0.51421564    -0.33600
H771        H  0.27125330  0.67740291  0.52809389     0.27800
H772        H  0.14453573  0.50672614  0.44792895     0.27800
H773        H  0.25536116  0.57753550  0.95331540     0.18300
H774        H  0.17446813  0.63086738  0.49109765     0.18300
C775        C  0.35416798  0.64964340  0.47864801     0.78900
N776        N  0.37331198  0.68777817  0.47735725    -0.79400
C777        C  0.35394795  0.70558406  0.47774556     0.81300
N778        N  0.31526438  0.68517352  0.47909041    -0.79400
C779        C  0.29567415  0.64712110  0.48079141     0.81400
N780        N  0.31531888  0.62947855  0.48032247    -0.81100
C781        C  0.35093705  0.64806144  0.72914072     0.78900
N782        N  0.31217785  0.62774713  0.73080641    -0.79400
C783        C  0.29237446  0.64497126  0.73047820     0.81300
N784        N  0.31168243  0.68269076  0.72740529    -0.79400
C785        C  0.35043915  0.70311098  0.72512763     0.81400
N786        N  0.36995114  0.68573904  0.72597903    -0.81100
C787        C  0.14519898  0.84749381  0.86646364     0.78900
N788        N  0.12666538  0.80995935  0.86999608    -0.79400
C789        C  0.14638489  0.79356262  0.87335722     0.81300
N790        N  0.18497937  0.81493427  0.87349431    -0.79400
C791        C  0.20368218  0.85256784  0.87066161     0.81400
N792        N  0.18382618  0.86864528  0.86716763    -0.81100
C793        C  0.14207977  0.84194689  0.61604490     0.78900
N794        N  0.12440659  0.80364570  0.61573215    -0.79400
C795        C  0.14537945  0.78730291  0.61455440     0.81300
N796        N  0.18404285  0.80954386  0.61388055    -0.79400
C797        C  0.20211265  0.84776145  0.61391635     0.81400
N798        N  0.18083573  0.86360666  0.61503202    -0.81100
N799        N  0.08335979  0.55798792  0.95204199    -0.07500
N800        N  0.11027279  0.57201880  0.97037633    -0.59600
N801        N  0.06104057  0.58143433  0.89632607    -0.07200
N802        N  0.07689064  0.60905946  0.87914028    -0.61700
N803        N  0.05008990  0.59223419  0.92178014    -0.06800
N804        N  0.05820729  0.62732167  0.92244875    -0.59600
N805        N  0.09430359  0.54693214  0.92668684    -0.06400
N806        N  0.12885662  0.55305781  0.92730296    -0.62100
C807        C  0.13825646  0.56823789  0.95480477     0.94700
C808        C  0.07488655  0.63750467  0.89574571     0.94500
N809        N  0.48999348  0.97465774  0.85243848    -0.07700
N810        N  0.47408294  0.96695399  0.82781691    -0.60200
N811        N  0.05655885  0.97332403  0.88314336    -0.05800
N812        N  0.08514371  0.96759233  0.87811667    -0.61400
N813        N  0.02374955  0.94079611  0.88252457    -0.07700
N814        N  0.02937341  0.91225031  0.87683486    -0.60400
N815        N  0.02288283  0.50722805  0.85266125    -0.05400
N816        N  0.03013109  0.52243426  0.82809679    -0.61500
Mn817      Mn  0.05959062  0.52766453  0.88910098     1.18400
C818        C  0.49938937  0.99701617  0.81299663     0.96800
C819        C  0.06789533  0.92941159  0.87399720     0.97400
N820        N  0.47561773  0.55596968  0.96361809    -0.07700
N821        N  0.47045555  0.58482700  0.96819242    -0.64000
N822        N  0.47584893  0.98899628  0.99344896    -0.06500
N823        N  0.46821145  0.97307497  0.51766455    -0.64700
N824        N  0.00890271  0.52135704  0.99390919    -0.07200
N825        N  0.02457898  0.52826804  0.51850611    -0.64300
N826        N  0.44256132  0.52362562  0.96341429    -0.06100
N827        N  0.41414696  0.52976795  0.96795488    -0.65000
Mn828      Mn  0.02986722  0.55773662  0.95840495     1.10700
C829        C  0.43202293  0.56808100  0.97110475     0.98000
C830        C  0.49887151  0.99786988  0.53290854     0.98100
N831        N  0.45006797  0.90486779  0.92509888    -0.07200
N832        N  0.44441880  0.87082755  0.92526072    -0.62600
N833        N  0.40561452  0.95032116  0.91977706    -0.06500
N834        N  0.37155845  0.94515998  0.91902599    -0.59300
N835        N  0.41629611  0.93884431  0.89454570    -0.07900
N836        N  0.38960181  0.92548477  0.87615559    -0.62200
N837        N  0.43847491  0.91547088  0.95031737    -0.06800
N838        N  0.42443347  0.88864018  0.96807553    -0.59400
Mn839      Mn  0.46954336  0.93880888  0.88812014     1.20200
Mn840      Mn  0.43961753  0.96914264  0.95730640     1.10100
Cl841      Cl  0.49968944  0.99837746  0.92321099    -0.87300
C842        C  0.42871577  0.86102913  0.95228157     0.95000
C843        C  0.36189875  0.92981404  0.89160663     0.94800
N844        N  0.08075026  0.55644034  0.70284112    -0.07500
N845        N  0.10696463  0.57003068  0.72176079    -0.59600
N846        N  0.06041727  0.57831663  0.64477334    -0.07200
N847        N  0.07543306  0.60461837  0.62643151    -0.61700
N848        N  0.04901307  0.59008942  0.66956752    -0.06800
N849        N  0.05610643  0.62459571  0.66871596    -0.59600
N850        N  0.09179446  0.54421871  0.67811654    -0.06800
N851        N  0.12559203  0.54911468  0.67967679    -0.62100
C852        C  0.13454204  0.56471968  0.70711420     0.94700
C853        C  0.07197776  0.63301437  0.64158655     0.94500
N854        N  0.49079776  0.97140352  0.60209520    -0.07700
N855        N  0.47605912  0.96373663  0.57695034    -0.60200
N856        N  0.05492687  0.96943806  0.63588182    -0.05800
N857        N  0.08289508  0.96270599  0.63226826    -0.61400
N858        N  0.02166674  0.93734991  0.63532192    -0.07700
N859        N  0.02620577  0.90809968  0.63132308    -0.60400
N860        N  0.02404842  0.50353985  0.60256282    -0.05400
N861        N  0.03276172  0.51858600  0.57777886    -0.61500
Mn862      Mn  0.05879448  0.52434128  0.63980157     1.18400
C863        C  0.50256419  0.99342869  0.56218237     0.96800
C864        C  0.06454576  0.92433801  0.62926096     0.97400
N865        N  0.47375233  0.55558524  0.71020895    -0.07700
N866        N  0.46895577  0.58458474  0.71278544    -0.64000
N867        N  0.47225679  0.98994425  0.74345889    -0.06500
N868        N  0.46434729  0.97519091  0.76833539    -0.64700
N869        N  0.00536337  0.52229179  0.74364576    -0.07200
N870        N  0.02073722  0.53031567  0.76855827    -0.64300
N871        N  0.44054258  0.52337251  0.71002305    -0.06100
N872        N  0.41238861  0.52976503  0.71255409    -0.65000
Mn873      Mn  0.02766376  0.55705254  0.70716094     1.10700
C874        C  0.43060460  0.56803386  0.71399236     0.98000
C875        C  0.49487360  0.00072002  0.78361439     0.98100
N876        N  0.44705376  0.90346579  0.67591272    -0.07200
N877        N  0.44081447  0.86930140  0.67650275    -0.62600
N878        N  0.40345900  0.94834230  0.66767383    -0.06500
N879        N  0.36866681  0.94119708  0.66621917    -0.59300
N880        N  0.41515575  0.93676740  0.64292011    -0.07900
N881        N  0.38856879  0.92141700  0.62417020    -0.62200
N882        N  0.43515918  0.91457997  0.70074705    -0.06800
N883        N  0.42020856  0.88781899  0.71867901    -0.59400
Mn884      Mn  0.46822656  0.93646885  0.63852951     1.20200
Mn885      Mn  0.43680232  0.96860368  0.70615977     1.10100
Cl886      Cl  0.49784372  0.99662314  0.67292287    -0.87300
C887        C  0.42420101  0.85976775  0.70332318     0.95000
C888        C  0.35978354  0.92444321  0.63895966     0.94800
C889        C  0.09198643  0.67161323  0.63282363    -0.07500
C890        C  0.07638693  0.68018143  0.61266159    -0.18600
C891        C  0.09347246  0.71753206  0.60553827     0.09700
C892        C  0.12682449  0.74680705  0.61894189    -0.07400
C893        C  0.14252626  0.73772405  0.63870755    -0.18600
C894        C  0.12556992  0.70066063  0.64576709     0.09700
S895        S  0.07164890  0.72576556  0.57913489    -0.33600
S896        S  0.14767461  0.69253885  0.67211033    -0.33600
H897        H  0.13835244  0.65594440  0.66003255     0.27800
H898        H  0.10604996  0.75518074  0.56713002     0.27800
H899        H  0.05053085  0.65778946  0.60274628     0.18300
H900        H  0.16784795  0.75990195  0.64936550     0.18300
C901        C  0.32133140  0.90676093  0.62861105    -0.07500
C902        C  0.30133070  0.92544410  0.63671562    -0.18600
C903        C  0.26342672  0.90865329  0.63003171     0.09700
C904        C  0.24424761  0.87136552  0.61570712    -0.07400
C905        C  0.26525754  0.85384340  0.60603323    -0.18600
C906        C  0.30320187  0.87080249  0.61248542     0.09700
S907        S  0.24123552  0.93587271  0.64188209    -0.33600
S908        S  0.32524836  0.84319323  0.60193528    -0.33600
H909        H  0.33843688  0.84886518  0.62948459     0.27800
H910        H  0.23259210  0.93495582  0.61361480     0.27800
H911        H  0.31527467  0.95330372  0.64869739     0.18300
H912        H  0.25141060  0.82562266  0.59463178     0.18300
C913        C  0.08366134  0.90256572  0.62411157    -0.07500
C914        C  0.06537509  0.86713121  0.63522101    -0.18600
C915        C  0.08335995  0.84651568  0.63313766     0.09700
C916        C  0.12016488  0.86096144  0.61861399    -0.07400
C917        C  0.13773942  0.89587780  0.60674811    -0.18600
C918        C  0.11998207  0.91659267  0.60914436     0.09700
S919        S  0.05881297  0.80376486  0.65139766    -0.33600
S920        S  0.14472131  0.95982173  0.59148425    -0.33600
H921        H  0.11177213  0.95309543  0.58012234     0.27800
H922        H  0.09118699  0.81285172  0.66506989     0.27800
H923        H  0.03752529  0.85617166  0.64683192     0.18300
H924        H  0.16556041  0.90709729  0.59508004     0.18300
C925        C  0.12628884  0.75318024  0.87800237    -0.07500
C926        C  0.14076186  0.73135003  0.86289235    -0.18600
C927        C  0.12456537  0.69344710  0.86776611     0.09700
C928        C  0.09222495  0.67642370  0.88764505    -0.07400
C929        C  0.07728840  0.69817570  0.90218898    -0.18600
C930        C  0.09431117  0.73638541  0.89806582     0.09700
S931        S  0.14843207  0.66977191  0.84952673    -0.33600
S932        S  0.07560191  0.76257312  0.92078198    -0.33600
H933        H  0.11152947  0.79550932  0.92584087     0.27800
H934        H  0.15052985  0.65737211  0.87512173     0.27800
H935        H  0.16563201  0.74428341  0.84774312     0.18300
H936        H  0.05285488  0.68568159  0.91776434     0.18300
C937        C  0.24489714  0.87611258  0.87358163    -0.07500
C938        C  0.26878638  0.86706642  0.85480053    -0.18600
C939        C  0.30789940  0.88635745  0.85832520     0.09700
C940        C  0.32328633  0.91436158  0.88208301    -0.07400
C941        C  0.29935119  0.92456585  0.89994512    -0.18600
C942        C  0.26033717  0.90575951  0.89596218     0.09700
S943        S  0.33558222  0.87230618  0.83248727    -0.33600
S944        S  0.23000729  0.91737076  0.92118472    -0.33600
H945        H  0.25918086  0.94793965  0.93740504     0.27800
H946        H  0.36283064  0.90976105  0.82605884     0.27800
H947        H  0.25674857  0.84451918  0.83737929     0.18300
H948        H  0.31089620  0.94622548  0.91793827     0.18300
C949        C  0.08816256  0.90862678  0.86816177    -0.07500
C950        C  0.06642846  0.86889497  0.86776953    -0.18600
C951        C  0.08372304  0.84761730  0.86499307     0.09700
C952        C  0.12413327  0.86657255  0.86430878    -0.07400
C953        C  0.14568902  0.90616861  0.86305181    -0.18600
C954        C  0.12838870  0.92707372  0.86406403     0.09700
S955        S  0.05206702  0.79674970  0.86193630    -0.33600
S956        S  0.15977616  0.97686029  0.85933319    -0.33600
H957        H  0.13821708  0.97596590  0.83820835     0.27800
H958        H  0.07307595  0.79102607  0.83750082     0.27800
H959        H  0.03550182  0.85403431  0.86963518     0.18300
H960        H  0.17662116  0.92144449  0.86122213     0.18300
C961        C  0.37225857  0.62867109  0.72746487    -0.07500
C962        C  0.40610102  0.64205146  0.70936928    -0.18600
C963        C  0.42536630  0.62257331  0.70416280     0.09700
C964        C  0.41090778  0.58907211  0.71764514    -0.07400
C965        C  0.37744062  0.57591484  0.73604088    -0.18600
C966        C  0.35845710  0.59569973  0.74159426     0.09700
S967        S  0.46680277  0.64076117  0.67873902    -0.33600
S968        S  0.31824153  0.57851389  0.76813238    -0.33600
H969        H  0.32647647  0.61488139  0.78007767     0.27800
H970        H  0.45832369  0.60486016  0.66534395     0.27800
H971        H  0.41687667  0.66705146  0.69816374     0.18300
H972        H  0.36669985  0.55070561  0.74698387     0.18300
C973        C  0.37102786  0.74348135  0.72035423    -0.07500
C974        C  0.36168205  0.76736646  0.73900670    -0.18600
C975        C  0.38015184  0.80603525  0.73547852     0.09700
C976        C  0.40807255  0.82119449  0.71214677    -0.07400
C977        C  0.41805023  0.79718591  0.69406977    -0.18600
C978        C  0.39957205  0.75863130  0.69759532     0.09700
S979        S  0.36570498  0.83364495  0.76102801    -0.33600
S980        S  0.41180197  0.73000706  0.67092996    -0.33600
H981        H  0.37446367  0.69801132  0.66987671     0.27800
H982        H  0.40331384  0.86099222  0.76831897     0.27800
H983        H  0.33994024  0.75580443  0.75664118     0.18300
H984        H  0.43934582  0.80807598  0.67609094     0.18300
C985        C  0.17271305  0.58073597  0.71751562    -0.07500
C986        C  0.18781789  0.61442390  0.73621138    -0.18600
C987        C  0.22631543  0.63508061  0.74227750     0.09700
C988        C  0.25045524  0.62185557  0.72933853    -0.07400
C989        C  0.23462745  0.58673072  0.71245001    -0.18600
C990        C  0.19617067  0.56600760  0.70650635     0.09700
S991        S  0.24278879  0.67821615  0.76627057    -0.33600
S992        S  0.17926820  0.52146639  0.68425244    -0.33600
H993        H  0.14239413  0.50322739  0.69829750     0.27800
H994        H  0.27045948  0.67559933  0.77819103     0.27800
H995        H  0.17001091  0.62576604  0.74513711     0.18300
H996        H  0.25269807  0.57597889  0.70272330     0.18300
C997        C  0.37513034  0.62972875  0.97710371    -0.07500
C998        C  0.35865537  0.59697715  0.99179541    -0.18600
C999        C  0.37703625  0.57695961  0.99119367     0.09700
C1000       C  0.41244397  0.58934138  0.97502051    -0.07400
C1001       C  0.42930386  0.62239285  0.96089398    -0.18600
C1002       C  0.41099659  0.64231593  0.96137727     0.09700
S1003       S  0.35474726  0.53714164  0.01264215    -0.33600
S1004       S  0.43355588  0.68130084  0.93920574    -0.33600
H1005       H  0.40003315  0.66685344  0.92506263     0.27800
H1006       H  0.38924469  0.54437144  0.02148974     0.27800
H1007       H  0.33155576  0.58726415  0.50436378     0.18300
H1008       H  0.45627938  0.63188437  0.94816357     0.18300
C1009       C  0.37454559  0.74545924  0.97185232    -0.07500
C1010       C  0.37791249  0.77318879  0.49434103    -0.18600
C1011       C  0.39713105  0.81157499  0.98932511     0.09700
C1012       C  0.41258206  0.82233836  0.96092353    -0.07400
C1013       C  0.40976710  0.79426498  0.93880345    -0.18600
C1014       C  0.39045669  0.75616682  0.94377998     0.09700
S1015       S  0.40131698  0.84494490  0.52015155    -0.33600
S1016       S  0.38547684  0.72260713  0.91282029    -0.33600
H1017       H  0.34969455  0.69237466  0.92210311     0.27800
H1018       H  0.44004854  0.87140792  0.01304442     0.27800
H1019       H  0.36577604  0.76490314  0.51597287     0.18300
H1020       H  0.42116700  0.80160922  0.91688965     0.18300
C1021       C  0.25376435  0.62449359  0.97868858    -0.07500
C1022       C  0.23772158  0.58913219  0.96203591    -0.18600
C1023       C  0.19950944  0.56901444  0.95531017     0.09700
C1024       C  0.17665525  0.58471009  0.96497124    -0.07400
C1025       C  0.19193066  0.61885155  0.98311198    -0.18600
C1026       C  0.22996979  0.63869726  0.99026721     0.09700
S1027       S  0.18174758  0.52349914  0.93444600    -0.33600
S1028       S  0.24615262  0.68184447  0.01421392    -0.33600
H1029       H  0.27125652  0.67740167  0.02809192     0.27800
H1030       H  0.14453878  0.50672524  0.94792701     0.27800
H1031       H  0.25535792  0.57753620  0.45331782     0.18300
H1032       H  0.17447113  0.63086617  0.99109598     0.18300
C1033       C  0.85417077  0.14964295  0.97864626     0.78900
N1034       N  0.87331462  0.18777774  0.97735565    -0.79400
C1035       C  0.85395046  0.20558345  0.97774378     0.81300
N1036       N  0.81526691  0.18517271  0.97908829    -0.79400
C1037       C  0.79567681  0.14712026  0.98078915     0.81400
N1038       N  0.81532167  0.12947788  0.98032040    -0.81100
C1039       C  0.85093851  0.14806185  0.22914042     0.78900
N1040       N  0.81217931  0.12774754  0.23080647    -0.79400
C1041       C  0.79237583  0.14497164  0.23047847     0.81300
N1042       N  0.81168370  0.18269114  0.22740554    -0.79400
C1043       C  0.85044041  0.20311133  0.22512752     0.81400
N1044       N  0.86995253  0.18573939  0.22597850    -0.81100
C1045       C  0.64519730  0.34749450  0.36646487     0.78900
N1046       N  0.62666362  0.30996008  0.36999751    -0.79400
C1047       C  0.64638312  0.29356324  0.37335846     0.81300
N1048       N  0.68497763  0.31493476  0.37349514    -0.79400
C1049       C  0.70368051  0.35256827  0.37066220     0.81400
N1050       N  0.68382453  0.36864579  0.36716841    -0.81100
C1051       C  0.64208061  0.34194827  0.11604576     0.78900
N1052       N  0.62440716  0.30364710  0.11573324    -0.79400
C1053       C  0.64537972  0.28730416  0.11455629     0.81300
N1054       N  0.68404308  0.30954488  0.11388293    -0.79400
C1055       C  0.70211317  0.34776243  0.11391840     0.81400
N1056       N  0.68083657  0.36360787  0.11503334    -0.81100
N1057       N  0.58335738  0.05798858  0.45204351    -0.07500
N1058       N  0.61027027  0.07201952  0.47037795    -0.59600
N1059       N  0.56103850  0.08143488  0.39632744    -0.07200
N1060       N  0.57688897  0.10906017  0.37914178    -0.61700
N1061       N  0.55008749  0.09223460  0.42178143    -0.06800
N1062       N  0.55820505  0.12732214  0.42245009    -0.59600
N1063       N  0.59430136  0.04693284  0.42668843    -0.06400
N1064       N  0.62885439  0.05305861  0.42730468    -0.62100
C1065       C  0.63825406  0.06823869  0.45480650     0.94700
C1066       C  0.57488477  0.13750531  0.39574719     0.94500
N1067       N  0.98999230  0.47465822  0.35243930    -0.07700
N1068       N  0.97408247  0.46695421  0.32781733    -0.60200
N1069       N  0.55655721  0.47332495  0.38314499    -0.05800
N1070       N  0.58514218  0.46759340  0.37811849    -0.61400
N1071       N  0.52374798  0.44079695  0.38252600    -0.07700
N1072       N  0.52937200  0.41225127  0.37683636    -0.60400
N1073       N  0.52288150  0.00722867  0.35266247    -0.05400
N1074       N  0.53013036  0.02243474  0.32809787    -0.61500
Mn1075     Mn  0.55958879  0.02766521  0.38910243     1.18400
C1076       C  0.99938925  0.49701634  0.31299712     0.96800
C1077       C  0.56789393  0.42941268  0.37399896     0.97400
N1078       N  0.97561513  0.05596959  0.46361895    -0.07700
N1079       N  0.97045272  0.08482677  0.46819318    -0.64000
N1080       N  0.97584616  0.48899612  0.49344971    -0.06500
N1081       N  0.96821351  0.47307552  0.01766394    -0.64700
N1082       N  0.50890010  0.02135713  0.49391024    -0.07200
N1083       N  0.52458144  0.02826871  0.01850552    -0.64300
N1084       N  0.94255881  0.02362543  0.46341501    -0.06100
N1085       N  0.91414431  0.02976755  0.46795538    -0.65000
Mn1086     Mn  0.52986462  0.05773692  0.45840616     1.10700
C1087       C  0.93202006  0.06808058  0.47110529     0.98000
C1088       C  0.99887340  0.49787063  0.03290803     0.98100
N1089       N  0.95006581  0.40486790  0.42509965    -0.07200
N1090       N  0.94441659  0.37082764  0.42526158    -0.62600
N1091       N  0.90561249  0.45032123  0.41977739    -0.06500
N1092       N  0.87155648  0.44516006  0.41902610    -0.59300
N1093       N  0.91629433  0.43884450  0.39454608    -0.07900
N1094       N  0.88960024  0.42548505  0.37615578    -0.62200
N1095       N  0.93847249  0.41547094  0.45031804    -0.06800
N1096       N  0.92443086  0.38864023  0.46807621    -0.59400
Mn1097     Mn  0.96954169  0.43880924  0.38812095     1.20200
Mn1098     Mn  0.93961500  0.46914261  0.45730698     1.10100
Cl1099     Cl  0.99968722  0.49837776  0.42321194    -0.87300
C1100       C  0.92871329  0.36102919  0.45228239     0.95000
C1101       C  0.86189706  0.42981425  0.39160669     0.94800
N1102       N  0.58075161  0.05644124  0.20284146    -0.07500
N1103       N  0.60696603  0.07003124  0.22176105    -0.59600
N1104       N  0.56041801  0.07831806  0.14477418    -0.07200
N1105       N  0.57543326  0.10461995  0.12643253    -0.61700
N1106       N  0.54901376  0.09009040  0.16956855    -0.06800
N1107       N  0.55610649  0.12459650  0.16871731    -0.59600
N1108       N  0.59179585  0.04422007  0.17811665    -0.06800
N1109       N  0.62559346  0.04911602  0.17967667    -0.62100
C1110       C  0.63454350  0.06472052  0.20711417     0.94700
C1111       C  0.57197756  0.13301555  0.14158791     0.94500
N1112       N  0.99079876  0.47140498  0.10209511    -0.07700
N1113       N  0.97606040  0.46373792  0.07695011    -0.60200
N1114       N  0.55492824  0.46943982  0.13588133    -0.05800
N1115       N  0.58289654  0.46270789  0.13226781    -0.61400
N1116       N  0.52166817  0.43735161  0.13532135    -0.07700
N1117       N  0.52620732  0.40810148  0.13132247    -0.60400
N1118       N  0.52404962  0.00354182  0.10256309    -0.05400
N1119       N  0.53276318  0.01858780  0.07777902    -0.61500
Mn1120     Mn  0.55879572  0.02434299  0.13980180     1.18400
C1121       C  0.00256554  0.49342996  0.06218216     0.96800
C1122       C  0.56454732  0.42433991  0.12926042     0.97400
N1123       N  0.97375337  0.05558537  0.21020970    -0.07700
N1124       N  0.96895673  0.08458482  0.21278606    -0.64000
N1125       N  0.97225810  0.48994415  0.24345887    -0.06500
N1126       N  0.96434823  0.47519082  0.26833541    -0.64700
N1127       N  0.50536457  0.02229199  0.24364620    -0.07200
N1128       N  0.52073796  0.03031590  0.26855892    -0.64300
N1129       N  0.94054366  0.02337260  0.21002370    -0.06100
N1130       N  0.91238963  0.02976502  0.21255458    -0.65000
Mn1131     Mn  0.52766488  0.05705319  0.20716166     1.10700
C1132       C  0.93060557  0.06803385  0.21399285     0.98000
C1133       C  0.99487427  0.50071996  0.28361462     0.98100
N1134       N  0.94705539  0.40346643  0.17591213    -0.07200
N1135       N  0.94081627  0.36930204  0.17650186    -0.62600
N1136       N  0.90346027  0.44834291  0.16767416    -0.06500
N1137       N  0.86866801  0.44119767  0.16621988    -0.59300
N1138       N  0.91515683  0.43676823  0.14292024    -0.07900
N1139       N  0.88856961  0.42141789  0.12417054    -0.62200
N1140       N  0.93516082  0.41458031  0.20074661    -0.06800
N1141       N  0.92021033  0.38781909  0.21867834    -0.59400
Mn1142     Mn  0.96822781  0.43646993  0.13852918     1.20200
Mn1143     Mn  0.93680367  0.46860390  0.20615988     1.10100
Cl1144     Cl  0.99784491  0.49662387  0.17292289    -0.87300
C1145       C  0.92420291  0.35976804  0.20332226     0.95000
C1146       C  0.85978448  0.42444402  0.13896038     0.94800
C1147       C  0.59198613  0.17161458  0.13282548    -0.07500
C1148       C  0.57638813  0.18018258  0.11266210    -0.18600
C1149       C  0.59347379  0.21753329  0.10553896     0.09700
C1150       C  0.62682441  0.24680844  0.11894407    -0.07400
C1151       C  0.64252459  0.23772572  0.13871118    -0.18600
C1152       C  0.62556816  0.20066224  0.14577052     0.09700
S1153       S  0.57165232  0.22576670  0.07913386    -0.33600
S1154       S  0.64767112  0.19254050  0.17211518    -0.33600
H1155       H  0.63835152  0.15594704  0.16003657     0.27800
H1156       H  0.60605401  0.25518271  0.06713045     0.27800
H1157       H  0.55053318  0.15779039  0.10274557     0.18300
H1158       H  0.66784520  0.25990379  0.14937021     0.18300
C1159       C  0.82133213  0.40676160  0.12861228    -0.07500
C1160       C  0.80133176  0.42544512  0.13671664    -0.18600
C1161       C  0.76342760  0.40865424  0.13003319     0.09700
C1162       C  0.74424809  0.37136616  0.11570917    -0.07400
C1163       C  0.76525763  0.35384353  0.10603567    -0.18600
C1164       C  0.80320206  0.37080261  0.11248753     0.09700
S1165       S  0.74123667  0.43587394  0.14188339    -0.33600
S1166       S  0.82524799  0.34319273  0.10193825    -0.33600
H1167       H  0.83843759  0.34886633  0.12948742     0.27800
H1168       H  0.73259353  0.43495709  0.11361601     0.27800
H1169       H  0.81527612  0.45330506  0.14869792     0.18300
H1170       H  0.75141035  0.32562248  0.09463477     0.18300
C1171       C  0.58366289  0.40256765  0.12411134    -0.07500
C1172       C  0.56537598  0.36713278  0.13522028    -0.18600
C1173       C  0.58336049  0.34651698  0.13313711     0.09700
C1174       C  0.62016592  0.36096298  0.11861431    -0.07400
C1175       C  0.63774116  0.39587970  0.10674886    -0.18600
C1176       C  0.61998404  0.41659476  0.10914481     0.09700
S1177       S  0.55881211  0.30376528  0.15139611    -0.33600
S1178       S  0.64472408  0.45982421  0.09148518    -0.33600
H1179       H  0.61177546  0.45309817  0.08012250     0.27800
H1180       H  0.59118496  0.31285180  0.16506982     0.27800
H1181       H  0.53752583  0.35617307  0.14683058     0.18300
H1182       H  0.66556247  0.40709933  0.09508137     0.18300
C1183       C  0.62628711  0.25318086  0.37800372    -0.07500
C1184       C  0.64076070  0.23135086  0.36289426    -0.18600
C1185       C  0.62456426  0.19344797  0.36776811     0.09700
C1186       C  0.59222338  0.17642440  0.38764661    -0.07400
C1187       C  0.57728635  0.19817619  0.40219006    -0.18600
C1188       C  0.59430895  0.23638582  0.39806674     0.09700
S1189       S  0.64843147  0.16977300  0.34952937    -0.33600
S1190       S  0.57559872  0.26257312  0.42078217    -0.33600
H1191       H  0.61152602  0.29550933  0.42584184     0.27800
H1192       H  0.65052831  0.15737286  0.37512453     0.27800
H1193       H  0.66563120  0.24428435  0.34774536     0.18300
H1194       H  0.55285246  0.18568191  0.41776509     0.18300
C1195       C  0.74489551  0.37611294  0.37358193    -0.07500
C1196       C  0.76878445  0.36706613  0.35480106    -0.18600
C1197       C  0.80789750  0.38635708  0.35832559     0.09700
C1198       C  0.82328475  0.41436186  0.38208295    -0.07400
C1199       C  0.79934993  0.42456681  0.39994475    -0.18600
C1200       C  0.76033586  0.40576043  0.39596206     0.09700
S1201       S  0.83557991  0.37230474  0.33248819    -0.33600
S1202       S  0.73000635  0.41737234  0.42118447    -0.33600
H1203       H  0.75918001  0.44794073  0.43740504     0.27800
H1204       H  0.86282852  0.40975925  0.32605901     0.27800
H1205       H  0.75674638  0.34451841  0.33738017     0.18300
H1206       H  0.81089522  0.44622696  0.41793754     0.18300
C1207       C  0.58816121  0.40862794  0.36816369    -0.07500
C1208       C  0.56642704  0.36889612  0.36777124    -0.18600
C1209       C  0.58372151  0.34761836  0.36499467     0.09700
C1210       C  0.62413172  0.36657349  0.36431041    -0.07400
C1211       C  0.64568757  0.40616962  0.36305382    -0.18600
C1212       C  0.62838736  0.42707488  0.36406621     0.09700
S1213       S  0.55206536  0.29675078  0.36193773    -0.33600
S1214       S  0.65977497  0.47686160  0.35933597    -0.33600
H1215       H  0.63821647  0.47596764  0.33821087     0.27800
H1216       H  0.57307430  0.29102719  0.33750225     0.27800
H1217       H  0.53550038  0.35403548  0.36963677     0.18300
H1218       H  0.67661967  0.42144546  0.36122430     0.18300
C1219       C  0.87225999  0.12867147  0.22746459    -0.07500
C1220       C  0.90610145  0.14205058  0.20936793    -0.18600
C1221       C  0.92536652  0.12257220  0.20416168     0.09700
C1222       C  0.91090874  0.08907206  0.21764529    -0.07400
C1223       C  0.87744253  0.07591602  0.23604201    -0.18600
C1224       C  0.85845930  0.09570121  0.24159520     0.09700
S1225       S  0.96680175  0.14075831  0.17873668    -0.33600
S1226       S  0.81824524  0.07851733  0.26813469    -0.33600
H1227       H  0.82648059  0.11488545  0.28007850     0.27800
H1228       H  0.95832243  0.10485660  0.16534317     0.27800
H1229       H  0.91687643  0.16704975  0.19816145     0.18300
H1230       H  0.86670240  0.05070764  0.24698595     0.18300
C1231       C  0.87102902  0.24348150  0.22035364    -0.07500
C1232       C  0.86168648  0.26736784  0.23900780    -0.18600
C1233       C  0.88015678  0.30603664  0.23547939     0.09700
C1234       C  0.90807431  0.32119454  0.21214555    -0.07400
C1235       C  0.91804862  0.29718458  0.19406670    -0.18600
C1236       C  0.89957014  0.25863004  0.19759266     0.09700
S1237       S  0.86571525  0.33364829  0.26103181    -0.33600
S1238       S  0.91179578  0.23000405  0.17092556    -0.33600
H1239       H  0.87445707  0.19800858  0.16987551     0.27800
H1240       H  0.90332603  0.36099517  0.26831856     0.27800
H1241       H  0.83994707  0.25580680  0.25664393     0.18300
H1242       H  0.93934182  0.30807353  0.17608628     0.18300
C1243       C  0.67271454  0.08073649  0.21751551    -0.07500
C1244       C  0.68781907  0.11442362  0.23621219    -0.18600
C1245       C  0.72631658  0.13508020  0.24227844     0.09700
C1246       C  0.75045665  0.12185584  0.22933868    -0.07400
C1247       C  0.73462920  0.08673171  0.21244919    -0.18600
C1248       C  0.69617246  0.06600869  0.20650543     0.09700
S1249       S  0.74278961  0.17821471  0.26627270    -0.33600
S1250       S  0.67927047  0.02146832  0.18425042    -0.33600
H1251       H  0.64239642  0.00322847  0.19829545     0.27800
H1252       H  0.77046094  0.17559785  0.27819211     0.27800
H1253       H  0.67001190  0.12576529  0.24513857     0.18300
H1254       H  0.75270006  0.07598042  0.20272186     0.18300
C1255       C  0.87512747  0.12972849  0.47710462    -0.07500
C1256       C  0.85865226  0.09697653  0.49179592    -0.18600
C1257       C  0.87703295  0.07695874  0.49119389     0.09700
C1258       C  0.91244091  0.08934080  0.47502101    -0.07400
C1259       C  0.92930096  0.12239253  0.46089478    -0.18600
C1260       C  0.91099374  0.14231569  0.46137819     0.09700
S1261       S  0.85474325  0.03713995  0.51264156    -0.33600
S1262       S  0.93355300  0.18130061  0.43920670    -0.33600
H1263       H  0.90003036  0.16685280  0.42506336     0.27800
H1264       H  0.88924031  0.04436943  0.52148964     0.27800
H1265       H  0.83155854  0.08726395  0.00436235     0.18300
H1266       H  0.95627660  0.13188420  0.44816447     0.18300
C1267       C  0.87454325  0.24545943  0.47185357    -0.07500
C1268       C  0.87791435  0.27318800  0.99433959    -0.18600
C1269       C  0.89712846  0.31157522  0.48932608     0.09700
C1270       C  0.91257957  0.32233847  0.46092448    -0.07400
C1271       C  0.90976478  0.29426503  0.43880455    -0.18600
C1272       C  0.89045450  0.25616691  0.44378122     0.09700
S1273       S  0.90131794  0.34494383  0.02015040    -0.33600
S1274       S  0.88547506  0.22260720  0.41282163    -0.33600
H1275       H  0.84969331  0.19237418  0.42210465     0.27800
H1276       H  0.94004580  0.37140831  0.51304530     0.27800
H1277       H  0.86577754  0.26490209  0.01597130     0.18300
H1278       H  0.92116477  0.30160918  0.41689075     0.18300
C1279       C  0.75376180  0.12449413  0.47869055    -0.07500
C1280       C  0.73771905  0.08913284  0.46203774    -0.18600
C1281       C  0.69950697  0.06901520  0.45531192     0.09700
C1282       C  0.67665277  0.08471081  0.46497308    -0.07400
C1283       C  0.69192813  0.11885217  0.48311394    -0.18600
C1284       C  0.72996724  0.13869780  0.49026923     0.09700
S1285       S  0.68174530  0.02350012  0.43444743    -0.33600
S1286       S  0.74615007  0.18184490  0.51421606    -0.33600
H1287       H  0.77125411  0.17740210  0.52809389     0.27800
H1288       H  0.64453645  0.00672599  0.44792834     0.27800
H1289       H  0.75536053  0.07753527  0.95331558     0.18300
H1290       H  0.67446860  0.13086677  0.49109798     0.18300
C1291       C  0.85416868  0.14964326  0.47864768     0.78900
N1292       N  0.87331260  0.18777804  0.47735695    -0.79400
C1293       C  0.85394851  0.20558386  0.47774526     0.81300
N1294       N  0.81526494  0.18517326  0.47909011    -0.79400
C1295       C  0.79567478  0.14712083  0.48079107     0.81400
N1296       N  0.81531958  0.12947834  0.48032212    -0.81100
C1297       C  0.85093690  0.14806117  0.72914085     0.78900
N1298       N  0.81217769  0.12774688  0.73080665    -0.79400
C1299       C  0.79237430  0.14497103  0.73047848     0.81300
N1300       N  0.81168229  0.18269052  0.72740549    -0.79400
C1301       C  0.85043901  0.20311073  0.72512773     0.81400
N1302       N  0.86995099  0.18573876  0.72597910    -0.81100
C1303       C  0.64519932  0.34749385  0.86646378     0.78900
N1304       N  0.62666565  0.30995939  0.86999623    -0.79400
C1305       C  0.64638509  0.29356260  0.87335742     0.81300
N1306       N  0.68497957  0.31493419  0.87349455    -0.79400
C1307       C  0.70368245  0.35256777  0.87066185     0.81400
N1308       N  0.68382651  0.36864526  0.86716782    -0.81100
C1309       C  0.64207967  0.34194704  0.61604491     0.78900
N1310       N  0.62440648  0.30364588  0.61573229    -0.79400
C1311       C  0.64537932  0.28730309  0.61455470     0.81300
N1312       N  0.68404272  0.30954402  0.61388084    -0.79400
C1313       C  0.70211253  0.34776159  0.61391651     0.81400
N1314       N  0.68083564  0.36360681  0.61503204    -0.81100
N1315       N  0.58335931  0.05798792  0.95204212    -0.07500
N1316       N  0.61027231  0.07201883  0.97037646    -0.59600
N1317       N  0.56104017  0.08143422  0.89632615    -0.07200
N1318       N  0.57689037  0.10905935  0.87914036    -0.61700
N1319       N  0.55008944  0.09223410  0.92178019    -0.06800
N1320       N  0.55820693  0.12732160  0.92244877    -0.59600
N1321       N  0.59430308  0.04693204  0.92668700    -0.06400
N1322       N  0.62885609  0.05305767  0.92730313    -0.62100
C1323       C  0.63825594  0.06823781  0.95480492     0.94700
C1324       C  0.57488630  0.13750458  0.89574576     0.94500
N1325       N  0.98999390  0.47465780  0.85243833    -0.07700
N1326       N  0.97408335  0.46695402  0.82781675    -0.60200
N1327       N  0.55655929  0.47332412  0.88314333    -0.05800
N1328       N  0.58514416  0.46759245  0.87811665    -0.61400
N1329       N  0.52375000  0.44079620  0.88252450    -0.07700
N1330       N  0.52937389  0.41225041  0.87683478    -0.60400
N1331       N  0.52288242  0.00722798  0.85266141    -0.05400
N1332       N  0.53013069  0.02243422  0.82809697    -0.61500
Mn1333     Mn  0.55959019  0.02766444  0.88910113     1.18400
C1334       C  0.99938976  0.49701619  0.81299646     0.96800
C1335       C  0.56789581  0.42941171  0.87399716     0.97400
N1336       N  0.97561742  0.05596977  0.96361813    -0.07700
N1337       N  0.97045518  0.08482706  0.96819239    -0.64000
N1338       N  0.97584934  0.48899623  0.99344880    -0.06500
N1339       N  0.96821080  0.47307483  0.51766451    -0.64700
N1340       N  0.50890226  0.02135713  0.99390935    -0.07200
N1341       N  0.52457962  0.02826818  0.51850615    -0.64300
N1342       N  0.94256103  0.02362568  0.96341441    -0.06100
N1343       N  0.91414664  0.02976795  0.96795499    -0.65000
Mn1344     Mn  0.52986675  0.05773662  0.95840503     1.10700
C1345       C  0.93202255  0.06808099  0.97110476     0.98000
C1346       C  0.99887088  0.49786972  0.53290849     0.98100
N1347       N  0.95006827  0.40486774  0.92509875    -0.07200
N1348       N  0.94441892  0.37082743  0.92526057    -0.62600
N1349       N  0.90561496  0.45032126  0.91977693    -0.06500
N1350       N  0.87155887  0.44516004  0.91902589    -0.59300
N1351       N  0.91629650  0.43884435  0.89454557    -0.07900
N1352       N  0.88960215  0.42548475  0.87615550    -0.62200
N1353       N  0.93847520  0.41547086  0.95031722    -0.06800
N1354       N  0.92443361  0.38864011  0.96807536    -0.59400
Mn1355     Mn  0.96954375  0.43880891  0.88812000     1.20200
Mn1356     Mn  0.93961794  0.46914269  0.95730625     1.10100
Cl1357     Cl  0.99968987  0.49837749  0.92321086    -0.87300
C1358       C  0.92871580  0.36102899  0.95228140     0.95000
C1359       C  0.86189910  0.42981403  0.89160656     0.94800
N1360       N  0.58075016  0.05644052  0.70284149    -0.07500
N1361       N  0.60696442  0.07003072  0.72176124    -0.59600
N1362       N  0.56041735  0.07831692  0.64477367    -0.07200
N1363       N  0.57543315  0.10461869  0.62643186    -0.61700
N1364       N  0.54901300  0.09008961  0.66956782    -0.06800
N1365       N  0.55610625  0.12459585  0.66871627    -0.59600
N1366       N  0.59179444  0.04421895  0.67811692    -0.06800
N1367       N  0.62559195  0.04911483  0.67967725    -0.62100
C1368       C  0.63454184  0.06471970  0.70711470     0.94700
C1369       C  0.57197769  0.13301460  0.64158689     0.94500
N1370       N  0.99079745  0.47140318  0.60209503    -0.07700
N1371       N  0.97605868  0.46373635  0.57695023    -0.60200
N1372       N  0.55492676  0.46943818  0.63588162    -0.05800
N1373       N  0.58289497  0.46270612  0.63226797    -0.61400
N1374       N  0.52166662  0.43735004  0.63532178    -0.07700
N1375       N  0.52620566  0.40809982  0.63132287    -0.60400
N1376       N  0.52404872  0.00354020  0.60256303    -0.05400
N1377       N  0.53276216  0.01858628  0.57777902    -0.61500
Mn1378     Mn  0.55879464  0.02434161  0.63980187     1.18400
C1379       C  0.00256367  0.49342845  0.56218227     0.96800
C1380       C  0.56454566  0.42433814  0.62926067     0.97400
N1381       N  0.97375208  0.05558487  0.71020894    -0.07700
N1382       N  0.96895552  0.08458437  0.71278545    -0.64000
N1383       N  0.97225699  0.48994420  0.74345875    -0.06500
N1384       N  0.96434755  0.47519092  0.76833527    -0.64700
N1385       N  0.50536313  0.02229187  0.74364597    -0.07200
N1386       N  0.52073690  0.03031574  0.76855851    -0.64300
N1387       N  0.94054234  0.02337214  0.71002302    -0.06100
N1388       N  0.91238837  0.02976465  0.71255406    -0.65000
Mn1389     Mn  0.52766363  0.05705269  0.70716120     1.10700
C1390       C  0.93060436  0.06803350  0.71399236     0.98000
C1391       C  0.99487393  0.50072001  0.78361421     0.98100
N1392       N  0.94705355  0.40346552  0.67591263    -0.07200
N1393       N  0.94081413  0.36930108  0.67650266    -0.62600
N1394       N  0.90345894  0.44834217  0.66767380    -0.06500
N1395       N  0.86866676  0.44119702  0.66621919    -0.59300
N1396       N  0.91515560  0.43676724  0.64292005    -0.07900
N1397       N  0.88856861  0.42141689  0.62417017    -0.62200
N1398       N  0.93515909  0.41457979  0.70074698    -0.06800
N1399       N  0.92020841  0.38781882  0.71867896    -0.59400
Mn1400     Mn  0.96822632  0.43646856  0.63852937     1.20200
Mn1401     Mn  0.93680238  0.46860357  0.70615968     1.10100
Cl1402     Cl  0.99784367  0.49662292  0.67292268    -0.87300
C1403       C  0.92420070  0.35976749  0.70332311     0.95000
C1404       C  0.85978342  0.42444316  0.63895968     0.94800
C1405       C  0.59198632  0.17161348  0.63282404    -0.07500
C1406       C  0.57638698  0.18018162  0.61266182    -0.18600
C1407       C  0.59347246  0.21753225  0.60553854     0.09700
C1408       C  0.62682433  0.24680728  0.61894230    -0.07400
C1409       C  0.64252590  0.23772438  0.63870819    -0.18600
C1410       C  0.62556957  0.20066096  0.64576774     0.09700
S1411       S  0.57164900  0.22576570  0.57913505    -0.33600
S1412       S  0.64767392  0.19253927  0.67211131    -0.33600
H1413       H  0.63835218  0.15594495  0.66003347     0.27800
H1414       H  0.60605008  0.25518091  0.56713023     0.27800
H1415       H  0.55053105  0.15778959  0.60274636     0.18300
H1416       H  0.66784743  0.25990232  0.64936628     0.18300
C1417       C  0.82133126  0.40676092  0.62861114    -0.07500
C1418       C  0.80133059  0.42544409  0.63671579    -0.18600
C1419       C  0.76342662  0.40865335  0.63003189     0.09700
C1420       C  0.74424749  0.37136562  0.61570723    -0.07400
C1421       C  0.76525739  0.35384348  0.60603328    -0.18600
C1422       C  0.80320171  0.37080250  0.61248546     0.09700
S1423       S  0.74123547  0.43587279  0.64188231    -0.33600
S1424       S  0.82524814  0.34319319  0.60193528    -0.33600
H1425       H  0.83843671  0.34886514  0.62948457     0.27800
H1426       H  0.73259212  0.43495600  0.61361502     0.27800
H1427       H  0.81527458  0.45330368  0.64869760     0.18300
H1428       H  0.75141041  0.32562275  0.59463179     0.18300
C1429       C  0.58366124  0.40256586  0.62411127    -0.07500
C1430       C  0.56537479  0.36713118  0.63522047    -0.18600
C1431       C  0.58335962  0.34651564  0.63313719     0.09700
C1432       C  0.62016476  0.36096157  0.61861385    -0.07400
C1433       C  0.63773947  0.39587806  0.60674815    -0.18600
C1434       C  0.61998215  0.41659294  0.60914433     0.09700
S1435       S  0.55881224  0.30376452  0.65139685    -0.33600
S1436       S  0.64472168  0.45982223  0.59148449    -0.33600
H1437       H  0.61177273  0.45309606  0.58012229     0.27800
H1438       H  0.59118588  0.31285132  0.66506958     0.27800
H1439       H  0.53752482  0.35617149  0.64683116     0.18300
H1440       H  0.66556058  0.40709767  0.59508029     0.18300
C1441       C  0.62628896  0.25318022  0.87800253    -0.07500
C1442       C  0.64076188  0.23134995  0.86289247    -0.18600
C1443       C  0.62456523  0.19344696  0.86776614     0.09700
C1444       C  0.59222482  0.17642362  0.88764510    -0.07400
C1445       C  0.57728837  0.19817570  0.90218906    -0.18600
C1446       C  0.59431122  0.23638541  0.89806593     0.09700
S1447       S  0.64843165  0.16977157  0.84952657    -0.33600
S1448       S  0.57560191  0.26257312  0.92078201    -0.33600
H1449       H  0.61152947  0.29550926  0.92584102     0.27800
H1450       H  0.65052962  0.15737180  0.87512151     0.27800
H1451       H  0.66563204  0.24428329  0.84774325     0.18300
H1452       H  0.55285483  0.18568162  0.91776440     0.18300
C1453       C  0.74489741  0.37611247  0.87358182    -0.07500
C1454       C  0.76878659  0.36706627  0.85480067    -0.18600
C1455       C  0.80789963  0.38635732  0.85832527     0.09700
C1456       C  0.82328665  0.41436152  0.88208301    -0.07400
C1457       C  0.79935157  0.42456586  0.89994514    -0.18600
C1458       C  0.76033752  0.40575947  0.89596232     0.09700
S1459       S  0.83558237  0.37230595  0.83248733    -0.33600
S1460       S  0.73000773  0.41737081  0.92118490    -0.33600
H1461       H  0.75918130  0.44793938  0.93740542     0.27800
H1462       H  0.86283074  0.40976078  0.82605878     0.27800
H1463       H  0.75674872  0.34451900  0.83737947     0.18300
H1464       H  0.81089666  0.44622556  0.91793822     0.18300
C1465       C  0.58816306  0.40862693  0.86816177    -0.07500
C1466       C  0.56642893  0.36889509  0.86776932    -0.18600
C1467       C  0.58372348  0.34761741  0.86499293     0.09700
C1468       C  0.62413370  0.36657265  0.86430886    -0.07400
C1469       C  0.64568949  0.40616873  0.86305208    -0.18600
C1470       C  0.62838922  0.42707390  0.86406430     0.09700
S1471       S  0.55206744  0.29674981  0.86193605    -0.33600
S1472       S  0.65977681  0.47686058  0.85933395    -0.33600
H1473       H  0.63821824  0.47596651  0.83820885     0.27800
H1474       H  0.57307655  0.29102620  0.83750071     0.27800
H1475       H  0.53550227  0.35403442  0.86963477     0.18300
H1476       H  0.67662163  0.42144462  0.86122260     0.18300
C1477       C  0.87225842  0.12867080  0.72746498    -0.07500
C1478       C  0.90610075  0.14205106  0.70936926    -0.18600
C1479       C  0.92536602  0.12257289  0.70416276     0.09700
C1480       C  0.91090757  0.08907177  0.71764518    -0.07400
C1481       C  0.87744054  0.07591462  0.73604105    -0.18600
C1482       C  0.85845705  0.09569955  0.74159447     0.09700
S1483       S  0.96680239  0.14076064  0.67873888    -0.33600
S1484       S  0.81824168  0.07851389  0.76813277    -0.33600
H1485       H  0.82647669  0.11488146  0.78007793     0.27800
H1486       H  0.95832322  0.10485958  0.66534387     0.27800
H1487       H  0.91687633  0.16705099  0.69816365     0.18300
H1488       H  0.86669985  0.05070545  0.74698414     0.18300
C1489       C  0.87102772  0.24348112  0.72035432    -0.07500
C1490       C  0.86168156  0.26736614  0.73900656    -0.18600
C1491       C  0.88015123  0.30603490  0.73547832     0.09700
C1492       C  0.90807223  0.32119425  0.71214674    -0.07400
C1493       C  0.91805024  0.29718577  0.69406998    -0.18600
C1494       C  0.89957218  0.25863118  0.69759558     0.09700
S1495       S  0.86570380  0.33364444  0.76102743    -0.33600
S1496       S  0.91180263  0.23000710  0.67093051    -0.33600
H1497       H  0.87446438  0.19801134  0.66987689     0.27800
H1498       H  0.90331243  0.36099167  0.76831893     0.27800
H1499       H  0.83993950  0.25580403  0.75664094     0.18300
H1500       H  0.93934606  0.30807593  0.67609125     0.18300
C1501       C  0.67271281  0.08073589  0.71751617    -0.07500
C1502       C  0.68781779  0.11442394  0.73621178    -0.18600
C1503       C  0.72631535  0.13508059  0.74227785     0.09700
C1504       C  0.75045505  0.12185538  0.72933895    -0.07400
C1505       C  0.73462709  0.08673038  0.71245061    -0.18600
C1506       C  0.69617028  0.06600732  0.70650703     0.09700
S1507       S  0.74278887  0.17821626  0.76627077    -0.33600
S1508       S  0.67926758  0.02146591  0.68425335    -0.33600
H1509       H  0.64239345  0.00322722  0.69829834     0.27800
H1510       H  0.77045949  0.17559940  0.77819128     0.27800
H1511       H  0.67001092  0.12576622  0.74513741     0.18300
H1512       H  0.75269761  0.07597840  0.70272398     0.18300
C1513       C  0.87512966  0.12972838  0.97710342    -0.07500
C1514       C  0.85865488  0.09697698  0.99179531    -0.18600
C1515       C  0.87703583  0.07695952  0.99119363     0.09700
C1516       C  0.91244349  0.08934124  0.97502037    -0.07400
C1517       C  0.92930312  0.12239243  0.96089353    -0.18600
C1518       C  0.91099571  0.14231536  0.96137670     0.09700
S1519       S  0.85474701  0.03714172  0.01264226    -0.33600
S1520       S  0.93355449  0.18129975  0.93920468    -0.33600
H1521       H  0.90003130  0.16685235  0.92506220     0.27800
H1522       H  0.88924451  0.04437172  0.02148987     0.27800
H1523       H  0.83155573  0.08726324  0.50436269     0.18300
H1524       H  0.95627855  0.13188383  0.94816295     0.18300
C1525       C  0.87454519  0.24545904  0.97185221    -0.07500
C1526       C  0.87791177  0.27318836  0.49434077    -0.18600
C1527       C  0.89713121  0.31157491  0.98932499     0.09700
C1528       C  0.91258189  0.32233816  0.96092334    -0.07400
C1529       C  0.90976645  0.29426467  0.93880321    -0.18600
C1530       C  0.89045595  0.25616651  0.94377979     0.09700
S1531       S  0.90131441  0.34494409  0.52015133    -0.33600
S1532       S  0.88547565  0.22260669  0.91282008    -0.33600
H1533       H  0.84969343  0.19237431  0.92210310     0.27800
H1534       H  0.94004928  0.37140783  0.01304401     0.27800
H1535       H  0.86577459  0.26490246  0.51597243     0.18300
H1536       H  0.92116609  0.30160882  0.91688937     0.18300
C1537       C  0.75376384  0.12449351  0.97868862    -0.07500
C1538       C  0.73772100  0.08913203  0.96203604    -0.18600
C1539       C  0.69950885  0.06901429  0.95531035     0.09700
C1540       C  0.67665473  0.08471001  0.96497136    -0.07400
C1541       C  0.69193020  0.11885157  0.98311198    -0.18600
C1542       C  0.72996934  0.13869728  0.99026718     0.09700
S1543       S  0.68174691  0.02349890  0.93444626    -0.33600
S1544       S  0.74615226  0.18184462  0.01421373    -0.33600
H1545       H  0.77125611  0.17740184  0.02809182     0.27800
H1546       H  0.64453810  0.00672510  0.94792724     0.27800
H1547       H  0.75535862  0.07753617  0.45331716     0.18300
H1548       H  0.67447072  0.13086625  0.99109592     0.18300
C1549       C  0.85417119  0.64964318  0.97864648     0.78900
N1550       N  0.87331491  0.68777798  0.97735593    -0.79400
C1551       C  0.85395065  0.70558358  0.97774402     0.81300
N1552       N  0.81526710  0.68517273  0.97908850    -0.79400
C1553       C  0.79567711  0.64712028  0.98078932     0.81400
N1554       N  0.81532208  0.62947801  0.98032055    -0.81100
C1555       C  0.85093827  0.64806176  0.22914096     0.78900
N1556       N  0.81217907  0.62774743  0.23080690    -0.79400
C1557       C  0.79237561  0.64497153  0.23047885     0.81300
N1558       N  0.81168349  0.68269105  0.22740599    -0.79400
C1559       C  0.85044020  0.70311129  0.22512809     0.81400
N1560       N  0.86995230  0.68573934  0.22597913    -0.81100
C1561       C  0.64519794  0.84749442  0.36646405     0.78900
N1562       N  0.62666412  0.80996001  0.36999678    -0.79400
C1563       C  0.64638345  0.79356312  0.37335806     0.81300
N1564       N  0.68497796  0.81493459  0.37349501    -0.79400
C1565       C  0.70368096  0.85256808  0.37066196     0.81400
N1566       N  0.68382514  0.86864565  0.36716789    -0.81100
C1567       C  0.64208108  0.84194834  0.11604554     0.78900
N1568       N  0.62440767  0.80364721  0.11573321    -0.79400
C1569       C  0.64538024  0.78730433  0.11455653     0.81300
N1570       N  0.68404358  0.80954505  0.11388318    -0.79400
C1571       C  0.70211365  0.84776257  0.11391840     0.81400
N1572       N  0.68083704  0.86360796  0.11503314    -0.81100
N1573       N  0.58335663  0.55798860  0.45204387    -0.07500
N1574       N  0.61026943  0.57201941  0.47037837    -0.59600
N1575       N  0.56103774  0.58143482  0.39632772    -0.07200
N1576       N  0.57688811  0.60905997  0.37914195    -0.61700
N1577       N  0.55008684  0.59223467  0.42178169    -0.06800
N1578       N  0.55820441  0.62732221  0.42245025    -0.59600
N1579       N  0.59430062  0.54693285  0.42668881    -0.06400
N1580       N  0.62885359  0.55305849  0.42730510    -0.62100
C1581       C  0.63825318  0.56823848  0.45480695     0.94700
C1582       C  0.57488399  0.63750521  0.39574727     0.94500
N1583       N  0.98999234  0.97465821  0.35243963    -0.07700
N1584       N  0.97408238  0.96695423  0.32781774    -0.60200
N1585       N  0.55655790  0.97332492  0.38314452    -0.05800
N1586       N  0.58514288  0.96759340  0.37811794    -0.61400
N1587       N  0.52374869  0.94079691  0.38252549    -0.07700
N1588       N  0.52937274  0.91225124  0.37683572    -0.60400
N1589       N  0.52288084  0.50722863  0.35266290    -0.05400
N1590       N  0.53012976  0.52243467  0.32809828    -0.61500
Mn1591     Mn  0.55958809  0.52766520  0.38910282     1.18400
C1592       C  0.99938913  0.99701634  0.31299750     0.96800
C1593       C  0.56789467  0.92941268  0.37399832     0.97400
N1594       N  0.97561427  0.55596946  0.46361854    -0.07700
N1595       N  0.97045177  0.58482659  0.46819277    -0.64000
N1596       N  0.97584697  0.98899615  0.49344999    -0.06500
N1597       N  0.96821339  0.97307574  0.01766440    -0.64700
N1598       N  0.50889946  0.52135722  0.49391060    -0.07200
N1599       N  0.52458181  0.52826863  0.01850575    -0.64300
N1600       N  0.94255799  0.52362526  0.46341455    -0.06100
N1601       N  0.91414343  0.52976730  0.46795490    -0.65000
Mn1602     Mn  0.52986397  0.55773701  0.45840648     1.10700
C1603       C  0.93201910  0.56808033  0.47110482     0.98000
C1604       C  0.99887333  0.99787088  0.03290844     0.98100
N1605       N  0.95006618  0.90486788  0.42509992    -0.07200
N1606       N  0.94441675  0.87082753  0.42526179    -0.62600
N1607       N  0.90561293  0.95032144  0.41977789    -0.06500
N1608       N  0.87155703  0.94516060  0.41902668    -0.59300
N1609       N  0.91629455  0.93884455  0.39454656    -0.07900
N1610       N  0.88960040  0.92548528  0.37615635    -0.62200
N1611       N  0.93847301  0.91547100  0.45031834    -0.06800
N1612       N  0.92443130  0.88864026  0.46807649    -0.59400
Mn1613     Mn  0.96954190  0.93880921  0.38812123     1.20200
Mn1614     Mn  0.93961565  0.96914272  0.45730737     1.10100
Cl1615     Cl  0.99968770  0.99837775  0.42321218    -0.87300
C1616       C  0.92871350  0.86102912  0.45228262     0.95000
C1617       C  0.86189743  0.92981482  0.39160728     0.94800
N1618       N  0.58075135  0.55644130  0.20284199    -0.07500
N1619       N  0.60696578  0.57003123  0.22176157    -0.59600
N1620       N  0.56041777  0.57831824  0.14477475    -0.07200
N1621       N  0.57543319  0.60462025  0.12643319    -0.61700
N1622       N  0.54901350  0.59009053  0.16956914    -0.06800
N1623       N  0.55610640  0.62459670  0.16871800    -0.59600
N1624       N  0.59179557  0.54422018  0.17811716    -0.06800
N1625       N  0.62559316  0.54911608  0.17967714    -0.62100
C1626       C  0.63454323  0.56472050  0.20711463     0.94700
C1627       C  0.57197759  0.63301586  0.14158864     0.94500
N1628       N  0.99079883  0.97140519  0.10209552    -0.07700
N1629       N  0.97606043  0.96373817  0.07695053    -0.60200
N1630       N  0.55492837  0.96943961  0.13588075    -0.05800
N1631       N  0.58289669  0.96270770  0.13226705    -0.61400
N1632       N  0.52166831  0.93735140  0.13532080    -0.07700
N1633       N  0.52620750  0.90810128  0.13132176    -0.60400
N1634       N  0.52404956  0.50354202  0.10256353    -0.05400
N1635       N  0.53276325  0.51858792  0.07777941    -0.61500
Mn1636     Mn  0.55879553  0.52434318  0.13980231     1.18400
C1637       C  0.00256554  0.99343023  0.06218258     0.96800
C1638       C  0.56454751  0.92433973  0.12925958     0.97400
N1639       N  0.97375319  0.55558522  0.21020925    -0.07700
N1640       N  0.96895647  0.58458463  0.21278572    -0.64000
N1641       N  0.97225804  0.98994417  0.24345926    -0.06500
N1642       N  0.96434809  0.97519084  0.26833580    -0.64700
N1643       N  0.50536419  0.52229190  0.24364662    -0.07200
N1644       N  0.52073751  0.53031580  0.26855936    -0.64300
N1645       N  0.94054351  0.52337241  0.21002331    -0.06100
N1646       N  0.91238942  0.52976478  0.21255435    -0.65000
Mn1647     Mn  0.52766457  0.55705322  0.20716218     1.10700
C1648       C  0.93060528  0.56803361  0.21399265     0.98000
C1649       C  0.99487414  0.00071994  0.28361502     0.98100
N1650       N  0.94705514  0.90346643  0.17591247    -0.07200
N1651       N  0.94081580  0.86930195  0.17650217    -0.62600
N1652       N  0.90346039  0.94834323  0.16767448    -0.06500
N1653       N  0.86866817  0.94119805  0.16622012    -0.59300
N1654       N  0.91515700  0.93676856  0.14292057    -0.07900
N1655       N  0.88856987  0.92141826  0.12417083    -0.62200
N1656       N  0.93516061  0.91458035  0.20074696    -0.06800
N1657       N  0.92020996  0.88781908  0.21867866    -0.59400
Mn1658     Mn  0.96822780  0.93647010  0.13852958     1.20200
Mn1659     Mn  0.93680366  0.96860405  0.20616024     1.10100
Cl1660     Cl  0.99784494  0.99662401  0.17292332    -0.87300
C1661       C  0.92420236  0.85976794  0.20332256     0.95000
C1662       C  0.85978475  0.92444443  0.13896061     0.94800
C1663       C  0.59198624  0.67161494  0.13282628    -0.07500
C1664       C  0.57638874  0.68018281  0.11266241    -0.18600
C1665       C  0.59347456  0.71753346  0.10553911     0.09700
C1666       C  0.62682487  0.74680869  0.11894451    -0.07400
C1667       C  0.64252458  0.73772614  0.13871213    -0.18600
C1668       C  0.62556793  0.70066271  0.14577169     0.09700
S1669       S  0.57165371  0.72576674  0.07913342    -0.33600
S1670       S  0.64767016  0.69254117  0.17211705    -0.33600
H1671       H  0.63835115  0.65594785  0.16003848     0.27800
H1672       H  0.60605564  0.75518276  0.06713028     0.27800
H1673       H  0.55053404  0.65779054  0.10274561     0.18300
H1674       H  0.66784494  0.75990430  0.14937138     0.18300
C1675       C  0.82133247  0.90676190  0.12861245    -0.07500
C1676       C  0.80133224  0.92544562  0.13671628    -0.18600
C1677       C  0.76342814  0.90865468  0.13003269     0.09700
C1678       C  0.74424856  0.87136634  0.11570911    -0.07400
C1679       C  0.76525801  0.85384351  0.10603609    -0.18600
C1680       C  0.80320236  0.87080263  0.11248811     0.09700
S1681       S  0.74123743  0.93587471  0.14188210    -0.33600
S1682       S  0.82524815  0.84319251  0.10193958    -0.33600
H1683       H  0.83843778  0.84886682  0.12948886     0.27800
H1684       H  0.73259425  0.93495705  0.11361455     0.27800
H1685       H  0.81527668  0.95330577  0.14869721     0.18300
H1686       H  0.75141068  0.82562226  0.09463550     0.18300
C1687       C  0.58366317  0.90256751  0.12411052    -0.07500
C1688       C  0.56537595  0.86713233  0.13521900    -0.18600
C1689       C  0.58336052  0.84651662  0.13313606     0.09700
C1690       C  0.62016634  0.86096299  0.11861388    -0.07400
C1691       C  0.63774189  0.89588002  0.10674883    -0.18600
C1692       C  0.61998475  0.91659503  0.10914464     0.09700
S1693       S  0.55881164  0.80376454  0.15139461    -0.33600
S1694       S  0.64472549  0.95982508  0.09148574    -0.33600
H1695       H  0.61177741  0.95309923  0.08012230     0.27800
H1696       H  0.59118395  0.81285109  0.16506911     0.27800
H1697       H  0.53752548  0.85617229  0.14682885     0.18300
H1698       H  0.66556351  0.90709996  0.09508178     0.18300
C1699       C  0.62628721  0.75318078  0.37800350    -0.07500
C1700       C  0.64076060  0.73135054  0.36289420    -0.18600
C1701       C  0.62456382  0.69344762  0.36776812     0.09700
C1702       C  0.59222284  0.67642429  0.38764658    -0.07400
C1703       C  0.57728602  0.69817632  0.40218988    -0.18600
C1704       C  0.59430894  0.73638598  0.39806646     0.09700
S1705       S  0.64843069  0.66977227  0.34952945    -0.33600
S1706       S  0.57559892  0.76257362  0.42078167    -0.33600
H1707       H  0.61152630  0.79550974  0.42584127     0.27800
H1708       H  0.65052746  0.65737221  0.37512468     0.27800
H1709       H  0.66563116  0.74428384  0.34774534     0.18300
H1710       H  0.55285207  0.68568223  0.41776487     0.18300
C1711       C  0.74489581  0.87611284  0.37358226    -0.07500
C1712       C  0.76878556  0.86706821  0.35480032    -0.18600
C1713       C  0.80789864  0.88635970  0.35832500     0.09700
C1714       C  0.82328504  0.91436252  0.38208364    -0.07400
C1715       C  0.79934931  0.92456536  0.39994656    -0.18600
C1716       C  0.76033527  0.90575863  0.39596365     0.09700
S1717       S  0.83558231  0.87231094  0.33248571    -0.33600
S1718       S  0.73000462  0.91736783  0.42118714    -0.33600
H1719       H  0.75917781  0.94793644  0.43740793     0.27800
H1720       H  0.86283084  0.90976674  0.32605954     0.27800
H1721       H  0.75674816  0.84452195  0.33737838     0.18300
H1722       H  0.81089385  0.94622404  0.41794032     0.18300
C1723       C  0.58816202  0.90862799  0.36816287    -0.07500
C1724       C  0.56642785  0.86889606  0.36776955    -0.18600
C1725       C  0.58372237  0.84761831  0.36499288     0.09700
C1726       C  0.62413251  0.86657350  0.36430941    -0.07400
C1727       C  0.64568840  0.90616977  0.36305361    -0.18600
C1728       C  0.62838823  0.92707507  0.36406610     0.09700
S1729       S  0.55206641  0.79675069  0.36193473    -0.33600
S1730       S  0.65977603  0.97686207  0.35933698    -0.33600
H1731       H  0.63821856  0.97596881  0.33821138     0.27800
H1732       H  0.57307663  0.79102794  0.33749982     0.27800
H1733       H  0.53550119  0.85403534  0.36963447     0.18300
H1734       H  0.67662053  0.92144571  0.36122471     0.18300
C1735       C  0.87225972  0.62867132  0.22746498    -0.07500
C1736       C  0.90610111  0.64205046  0.20936825    -0.18600
C1737       C  0.92536616  0.62257206  0.20416183     0.09700
C1738       C  0.91090839  0.58907180  0.21764526    -0.07400
C1739       C  0.87744220  0.57591568  0.23604203    -0.18600
C1740       C  0.85845903  0.59570095  0.24159545     0.09700
S1741       S  0.96680143  0.64075841  0.17873687    -0.33600
S1742       S  0.81824511  0.57851710  0.26813506    -0.33600
H1743       H  0.82648047  0.61488521  0.28007889     0.27800
H1744       H  0.95832208  0.60485680  0.16534311     0.27800
H1745       H  0.91687607  0.66704969  0.19816188     0.18300
H1746       H  0.86670207  0.55070723  0.24698585     0.18300
C1747       C  0.87102879  0.74348148  0.22035419    -0.07500
C1748       C  0.86168573  0.76736767  0.23900802    -0.18600
C1749       C  0.88015581  0.80603642  0.23547948     0.09700
C1750       C  0.90807374  0.82119446  0.21214590    -0.07400
C1751       C  0.91804853  0.79718465  0.19406737    -0.18600
C1752       C  0.89957022  0.75863015  0.19759342     0.09700
S1753       S  0.86571335  0.83364779  0.26103132    -0.33600
S1754       S  0.91179645  0.73000434  0.17092662    -0.33600
H1755       H  0.87445786  0.69800871  0.16987630     0.27800
H1756       H  0.90332379  0.86099467  0.26831886     0.27800
H1757       H  0.83994602  0.75580655  0.25664393     0.18300
H1758       H  0.93934199  0.80807370  0.17608711     0.18300
C1759       C  0.67271430  0.58073644  0.21751590    -0.07500
C1760       C  0.68781886  0.61442352  0.23621264    -0.18600
C1761       C  0.72631638  0.63508008  0.24227883     0.09700
C1762       C  0.75045644  0.62185576  0.22933900    -0.07400
C1763       C  0.73462901  0.58673171  0.21244939    -0.18600
C1764       C  0.69617227  0.56600873  0.20650564     0.09700
S1765       S  0.74278945  0.67821456  0.26627314    -0.33600
S1766       S  0.67927034  0.52146855  0.18425035    -0.33600
H1767       H  0.64239637  0.50322848  0.19829550     0.27800
H1768       H  0.77046070  0.67559760  0.27819256     0.27800
H1769       H  0.67001169  0.62576516  0.24513910     0.18300
H1770       H  0.75269991  0.57598048  0.20272196     0.18300
C1771       C  0.87512652  0.62972835  0.47710461    -0.07500
C1772       C  0.85865138  0.59697637  0.49179587    -0.18600
C1773       C  0.87703203  0.57695851  0.49119366     0.09700
C1774       C  0.91243989  0.58934051  0.47502062    -0.07400
C1775       C  0.92929986  0.62239225  0.46089441    -0.18600
C1776       C  0.91099267  0.64231550  0.46137802     0.09700
S1777       S  0.85474242  0.53713972  0.51264132    -0.33600
S1778       S  0.93355189  0.68130054  0.43920664    -0.33600
H1779       H  0.90002907  0.66685321  0.42506367     0.27800
H1780       H  0.88923953  0.54436903  0.52148917     0.27800
H1781       H  0.83155817  0.58726315  0.00436146     0.18300
H1782       H  0.95627543  0.63188390  0.44816399     0.18300
C1783       C  0.87454232  0.74545927  0.47185379    -0.07500
C1784       C  0.87791359  0.77318794  0.99433988    -0.18600
C1785       C  0.89712864  0.81157525  0.48932634     0.09700
C1786       C  0.91257937  0.82233831  0.46092465    -0.07400
C1787       C  0.90976370  0.79426465  0.43880460    -0.18600
C1788       C  0.89045298  0.75616652  0.44378130     0.09700
S1789       S  0.90131571  0.84494344  0.02015072    -0.33600
S1790       S  0.88547227  0.72260650  0.41282163    -0.33600
H1791       H  0.84969051  0.69237388  0.42210508     0.27800
H1792       H  0.94004678  0.87140822  0.51304528     0.27800
H1793       H  0.86577615  0.76490182  0.01597145     0.18300
H1794       H  0.92116329  0.80160866  0.41689073     0.18300
C1795       C  0.75376088  0.62449405  0.47869089    -0.07500
C1796       C  0.73771807  0.58913260  0.46203829    -0.18600
C1797       C  0.69950598  0.56901491  0.45531250     0.09700
C1798       C  0.67665183  0.58471058  0.46497355    -0.07400
C1799       C  0.69192724  0.61885210  0.48311421    -0.18600
C1800       C  0.72996638  0.63869785  0.49026940     0.09700
S1801       S  0.68174428  0.52349977  0.43444806    -0.33600
S1802       S  0.74614932  0.68184532  0.51421580    -0.33600
H1803       H  0.77125319  0.67740263  0.52809395     0.27800
H1804       H  0.64453534  0.50672573  0.44792881     0.27800
H1805       H  0.75536095  0.57753529  0.95331572     0.18300
H1806       H  0.67446775  0.63086678  0.49109810     0.18300
C1807       C  0.85416775  0.64964315  0.47864786     0.78900
N1808       N  0.87331167  0.68777793  0.47735718    -0.79400
C1809       C  0.85394757  0.70558376  0.47774556     0.81300
N1810       N  0.81526401  0.68517317  0.47909042    -0.79400
C1811       C  0.79567386  0.64712074  0.48079136     0.81400
N1812       N  0.81531865  0.62947824  0.48032234    -0.81100
C1813       C  0.85093717  0.64806128  0.72914099     0.78900
N1814       N  0.81217796  0.62774696  0.73080663    -0.79400
C1815       C  0.79237458  0.64497112  0.73047847     0.81300
N1816       N  0.81168257  0.68269064  0.72740563    -0.79400
C1817       C  0.85043928  0.70311088  0.72512804     0.81400
N1818       N  0.86995126  0.68573892  0.72597941    -0.81100
C1819       C  0.64519905  0.84749357  0.86646318     0.78900
N1820       N  0.62666541  0.80995910  0.86999564    -0.79400
C1821       C  0.64638490  0.79356239  0.87335694     0.81300
N1822       N  0.68497938  0.81493406  0.87349418    -0.79400
C1823       C  0.70368220  0.85256762  0.87066143     0.81400
N1824       N  0.68382622  0.86864505  0.86716735    -0.81100
C1825       C  0.64208012  0.84194700  0.61604429     0.78900
N1826       N  0.62440689  0.80364584  0.61573180    -0.79400
C1827       C  0.64537970  0.78730305  0.61455440     0.81300
N1828       N  0.68404309  0.80954395  0.61388059    -0.79400
C1829       C  0.70211294  0.84776151  0.61391606     0.81400
N1830       N  0.68083609  0.86360673  0.61503144    -0.81100
N1831       N  0.58335963  0.55798782  0.95204231    -0.07500
N1832       N  0.61027257  0.57201855  0.97037667    -0.59600
N1833       N  0.56104041  0.58143428  0.89632640    -0.07200
N1834       N  0.57689040  0.60905934  0.87914056    -0.61700
N1835       N  0.55008983  0.59223421  0.92178048    -0.06800
N1836       N  0.55820721  0.62732168  0.92244904    -0.59600
N1837       N  0.59430341  0.54693204  0.92668715    -0.06400
N1838       N  0.62885638  0.55305758  0.92730328    -0.62100
C1839       C  0.63825620  0.56823755  0.95480511     0.94700
C1840       C  0.57488637  0.63750458  0.89574596     0.94500
N1841       N  0.98999317  0.97465769  0.85243883    -0.07700
N1842       N  0.97408255  0.96695389  0.82781728    -0.60200
N1843       N  0.55655905  0.97332401  0.88314320    -0.05800
N1844       N  0.58514390  0.96759230  0.87811656    -0.61400
N1845       N  0.52374975  0.94079610  0.88252432    -0.07700
N1846       N  0.52937361  0.91225029  0.87683461    -0.60400
N1847       N  0.52288263  0.50722809  0.85266163    -0.05400
N1848       N  0.53013086  0.52243435  0.82809721    -0.61500
Mn1849     Mn  0.55959045  0.52766452  0.88910132     1.18400
C1850       C  0.99938894  0.99701603  0.81299697     0.96800
C1851       C  0.56789553  0.92941156  0.87399705     0.97400
N1852       N  0.97561770  0.55596962  0.96361777    -0.07700
N1853       N  0.97045544  0.58482690  0.96819222    -0.64000
N1854       N  0.97584913  0.98899641  0.99344924    -0.06500
N1855       N  0.96821156  0.97307495  0.51766484    -0.64700
N1856       N  0.50890266  0.52135707  0.99390956    -0.07200
N1857       N  0.52457904  0.52826824  0.51850647    -0.64300
N1858       N  0.94256132  0.52362553  0.96341391    -0.06100
N1859       N  0.91414692  0.52976780  0.96795456    -0.65000
Mn1860     Mn  0.52986716  0.55773663  0.95840528     1.10700
C1861       C  0.93202280  0.56808084  0.97110454     0.98000
C1862       C  0.99887163  0.99786986  0.53290882     0.98100
N1863       N  0.95006780  0.90486784  0.92509924    -0.07200
N1864       N  0.94441858  0.87082759  0.92526109    -0.62600
N1865       N  0.90561446  0.95032144  0.91977750    -0.06500
N1866       N  0.87155851  0.94516055  0.91902644    -0.59300
N1867       N  0.91629591  0.93884445  0.89454614    -0.07900
N1868       N  0.88960161  0.92548508  0.87615605    -0.62200
N1869       N  0.93847479  0.91547098  0.95031773    -0.06800
N1870       N  0.92443334  0.88864029  0.96807590    -0.59400
Mn1871     Mn  0.96954313  0.93880890  0.88812049     1.20200
Mn1872     Mn  0.93961758  0.96914283  0.95730677     1.10100
Cl1873     Cl  0.99968938  0.99837753  0.92321127    -0.87300
C1874       C  0.92871557  0.86102919  0.95228195     0.95000
C1875       C  0.86189870  0.92981464  0.89160709     0.94800
N1876       N  0.58075027  0.55644071  0.70284165    -0.07500
N1877       N  0.60696471  0.57003102  0.72176126    -0.59600
N1878       N  0.56041715  0.57831703  0.64477394    -0.07200
N1879       N  0.57543294  0.60461883  0.62643215    -0.61700
N1880       N  0.54901293  0.59008975  0.66956814    -0.06800
N1881       N  0.55610626  0.62459604  0.66871665    -0.59600
N1882       N  0.59179442  0.54421910  0.67811702    -0.06800
N1883       N  0.62559198  0.54911504  0.67967719    -0.62100
C1884       C  0.63454209  0.56472000  0.70711459     0.94700
C1885       C  0.57197763  0.63301478  0.64158726     0.94500
N1886       N  0.99079774  0.97140353  0.60209554    -0.07700
N1887       N  0.97605917  0.96373664  0.57695066    -0.60200
N1888       N  0.55492706  0.96943810  0.63588127    -0.05800
N1889       N  0.58289531  0.96270605  0.63226739    -0.61400
N1890       N  0.52166694  0.93734994  0.63532139    -0.07700
N1891       N  0.52620602  0.90809974  0.63132226    -0.60400
N1892       N  0.52404841  0.50354026  0.60256330    -0.05400
N1893       N  0.53276176  0.51858634  0.57777930    -0.61500
Mn1894     Mn  0.55879442  0.52434171  0.63980210     1.18400
C1895       C  0.00256426  0.99342870  0.56218270     0.96800
C1896       C  0.56454603  0.92433808  0.62925995     0.97400
N1897       N  0.97375241  0.55558492  0.71020837    -0.07700
N1898       N  0.96895585  0.58458443  0.71278492    -0.64000
N1899       N  0.97225646  0.98994402  0.74345921    -0.06500
N1900       N  0.96434688  0.97519070  0.76833573    -0.64700
N1901       N  0.50536322  0.52229201  0.74364625    -0.07200
N1902       N  0.52073702  0.53031585  0.76855877    -0.64300
N1903       N  0.94054266  0.52337220  0.71002256    -0.06100
N1904       N  0.91238869  0.52976473  0.71255370    -0.65000
Mn1905     Mn  0.52766368  0.55705285  0.70716150     1.10700
C1906       C  0.93060468  0.56803357  0.71399196     0.98000
C1907       C  0.99487317  0.00071982  0.78361474     0.98100
N1908       N  0.94705349  0.90346564  0.67591300    -0.07200
N1909       N  0.94081418  0.86930125  0.67650302    -0.62600
N1910       N  0.90345890  0.94834227  0.66767402    -0.06500
N1911       N  0.86866674  0.94119711  0.66621925    -0.59300
N1912       N  0.91515574  0.93676743  0.64292032    -0.07900
N1913       N  0.88856890  0.92141711  0.62417033    -0.62200
N1914       N  0.93515886  0.91457980  0.70074732    -0.06800
N1915       N  0.92020817  0.88781879  0.71867926    -0.59400
Mn1916     Mn  0.96822644  0.93646882  0.63852984     1.20200
Mn1917     Mn  0.93680207  0.96860352  0.70616005     1.10100
Cl1918     Cl  0.99784355  0.99662306  0.67292325    -0.87300
C1919       C  0.92420063  0.85976755  0.70332342     0.95000
C1920       C  0.85978363  0.92444333  0.63895970     0.94800
C1921       C  0.59198630  0.67161367  0.63282440    -0.07500
C1922       C  0.57638742  0.68018162  0.61266169    -0.18600
C1923       C  0.59347307  0.71753217  0.60553819     0.09700
C1924       C  0.62682464  0.74680731  0.61894223    -0.07400
C1925       C  0.64252578  0.73772460  0.63870860    -0.18600
C1926       C  0.62556927  0.70066126  0.64576838     0.09700
S1927       S  0.57165031  0.72576540  0.57913400    -0.33600
S1928       S  0.64767310  0.69253977  0.67211250    -0.33600
H1929       H  0.63835181  0.65594555  0.66003475     0.27800
H1930       H  0.60605163  0.75518065  0.56712950     0.27800
H1931       H  0.55053175  0.65778951  0.60274600     0.18300
H1932       H  0.66784709  0.75990264  0.64936687     0.18300
C1933       C  0.82133158  0.90676099  0.62861099    -0.07500
C1934       C  0.80133107  0.92544441  0.63671500    -0.18600
C1935       C  0.76342714  0.90865358  0.63003094     0.09700
C1936       C  0.74424790  0.87136553  0.61570682    -0.07400
C1937       C  0.76525769  0.85384315  0.60603346    -0.18600
C1938       C  0.80320197  0.87080227  0.61248578     0.09700
S1939       S  0.74123624  0.93587342  0.64188041    -0.33600
S1940       S  0.82524829  0.84319276  0.60193636    -0.33600
H1941       H  0.83843688  0.84886539  0.62948576     0.27800
H1942       H  0.73259285  0.93495568  0.61361291     0.27800
H1943       H  0.81527515  0.95330425  0.64869643     0.18300
H1944       H  0.75141067  0.82562218  0.59463234     0.18300
C1945       C  0.58366165  0.90256580  0.62411053    -0.07500
C1946       C  0.56537534  0.86713125  0.63521990    -0.18600
C1947       C  0.58336022  0.84651577  0.63313670     0.09700
C1948       C  0.62016524  0.86096156  0.61861320    -0.07400
C1949       C  0.63773986  0.89587795  0.60674735    -0.18600
C1950       C  0.61998252  0.91659282  0.60914351     0.09700
S1951       S  0.55881313  0.80376499  0.65139678    -0.33600
S1952       S  0.64472203  0.95982206  0.59148362    -0.33600
H1953       H  0.61177301  0.95309603  0.58012161     0.27800
H1954       H  0.59118701  0.81285200  0.66506927     0.27800
H1955       H  0.53752549  0.85617167  0.64683070     0.18300
H1956       H  0.66556090  0.90709748  0.59507943     0.18300
C1957       C  0.62628881  0.75318004  0.87800224    -0.07500
C1958       C  0.64076191  0.73134979  0.86289246    -0.18600
C1959       C  0.62456534  0.69344688  0.86776634     0.09700
C1960       C  0.59222484  0.67642359  0.88764522    -0.07400
C1961       C  0.57728826  0.69817564  0.90218896    -0.18600
C1962       C  0.59431103  0.73638530  0.89806561     0.09700
S1963       S  0.64843202  0.66977157  0.84952717    -0.33600
S1964       S  0.57560158  0.76257306  0.92078143    -0.33600
H1965       H  0.61152910  0.79550925  0.92584046     0.27800
H1966       H  0.65052974  0.65737195  0.87512228     0.27800
H1967       H  0.66563215  0.74428310  0.84774329     0.18300
H1968       H  0.55285468  0.68568159  0.91776426     0.18300
C1969       C  0.74489704  0.87611253  0.87358187    -0.07500
C1970       C  0.76878696  0.86706819  0.85479988    -0.18600
C1971       C  0.80790001  0.88635972  0.85832466     0.09700
C1972       C  0.82328623  0.91436225  0.88208351    -0.07400
C1973       C  0.79935034  0.92456478  0.89994654    -0.18600
C1974       C  0.76033633  0.90575808  0.89596345     0.09700
S1975       S  0.83558392  0.87231146  0.83248517    -0.33600
S1976       S  0.73000551  0.91736707  0.92118690    -0.33600
H1977       H  0.75917870  0.94793622  0.93740736     0.27800
H1978       H  0.86283225  0.90976742  0.82605925     0.27800
H1979       H  0.75674971  0.84452213  0.83737778     0.18300
H1980       H  0.81089472  0.94622321  0.91794046     0.18300
C1981       C  0.58816276  0.90862674  0.86816157    -0.07500
C1982       C  0.56642863  0.86889486  0.86776888    -0.18600
C1983       C  0.58372320  0.84761716  0.86499230     0.09700
C1984       C  0.62413340  0.86657239  0.86430834    -0.07400
C1985       C  0.64568918  0.90616852  0.86305181    -0.18600
C1986       C  0.62838893  0.92707371  0.86406417     0.09700
S1987       S  0.55206723  0.79674954  0.86193498    -0.33600
S1988       S  0.65977654  0.97686045  0.85933403    -0.33600
H1989       H  0.63821809  0.97596655  0.83820892     0.27800
H1990       H  0.57307671  0.79102627  0.83749975     0.27800
H1991       H  0.53550197  0.85403418  0.86963425     0.18300
H1992       H  0.67662131  0.92144442  0.86122240     0.18300
C1993       C  0.87225870  0.62867090  0.72746502    -0.07500
C1994       C  0.90610115  0.64205136  0.70936942    -0.18600
C1995       C  0.92536644  0.62257323  0.70416280     0.09700
C1996       C  0.91090787  0.58907186  0.71764493    -0.07400
C1997       C  0.87744071  0.57591450  0.73604069    -0.18600
C1998       C  0.85845724  0.59569946  0.74159428     0.09700
S1999       S  0.96680311  0.64076144  0.67873922    -0.33600
S2000       S  0.81824181  0.57851362  0.76813252    -0.33600
H2001       H  0.82647674  0.61488111  0.78007783     0.27800
H2002       H  0.95832403  0.60486058  0.66534380     0.27800
H2003       H  0.91687683  0.66705149  0.69816400     0.18300
H2004       H  0.86669992  0.55070518  0.74698358     0.18300
C2005       C  0.87102796  0.74348126  0.72035466    -0.07500
C2006       C  0.86168186  0.76736627  0.73900698    -0.18600
C2007       C  0.88015146  0.80603502  0.73547873     0.09700
C2008       C  0.90807225  0.82119433  0.71214703    -0.07400
C2009       C  0.91805018  0.79718585  0.69407017    -0.18600
C2010       C  0.89957222  0.75863129  0.69759581     0.09700
S2011       S  0.86570422  0.83364458  0.76102801    -0.33600
S2012       S  0.91180255  0.73000719  0.67093063    -0.33600
H2013       H  0.87446437  0.69801128  0.66987727     0.27800
H2014       H  0.90331296  0.86099194  0.76831920     0.27800
H2015       H  0.83993993  0.75580417  0.75664143     0.18300
H2016       H  0.93934586  0.80807599  0.67609137     0.18300
C2017       C  0.67271314  0.58073617  0.71751592    -0.07500
C2018       C  0.68781807  0.61442401  0.73621177    -0.18600
C2019       C  0.72631562  0.63508061  0.74227785     0.09700
C2020       C  0.75045535  0.62185551  0.72933880    -0.07400
C2021       C  0.73462749  0.58673075  0.71245016    -0.18600
C2022       C  0.69617070  0.56600776  0.70650651     0.09700
S2023       S  0.74278911  0.67821610  0.76627100    -0.33600
S2024       S  0.67926817  0.52146667  0.68425243    -0.33600
H2025       H  0.64239412  0.50322762  0.69829751     0.27800
H2026       H  0.77045970  0.67559910  0.77819142     0.27800
H2027       H  0.67001116  0.62576620  0.74513758     0.18300
H2028       H  0.75269805  0.57597890  0.70272337     0.18300
C2029       C  0.87513020  0.62972869  0.97710371    -0.07500
C2030       C  0.85865487  0.59697663  0.99179489    -0.18600
C2031       C  0.87703567  0.57695900  0.99119308     0.09700
C2032       C  0.91244377  0.58934118  0.97502037    -0.07400
C2033       C  0.92930400  0.62239310  0.96089435    -0.18600
C2034       C  0.91099679  0.64231627  0.96137771     0.09700
S2035       S  0.85474600  0.53714031  0.01264086    -0.33600
S2036       S  0.93355667  0.68130182  0.93920681    -0.33600
H2037       H  0.90003447  0.66685447  0.92506299     0.27800
H2038       H  0.88924308  0.54436983  0.02148894     0.27800
H2039       H  0.83155493  0.58726313  0.50436277     0.18300
H2040       H  0.95627983  0.63188497  0.94816426     0.18300
C2041       C  0.87454530  0.74545921  0.97185257    -0.07500
C2042       C  0.87791165  0.77318839  0.49434108    -0.18600
C2043       C  0.89713033  0.81157488  0.98932539     0.09700
C2044       C  0.91258184  0.82233841  0.96092391    -0.07400
C2045       C  0.90976731  0.79426515  0.93880389    -0.18600
C2046       C  0.89045683  0.75616695  0.94378033     0.09700
S2047       S  0.90131540  0.84494432  0.52015164    -0.33600
S2048       S  0.88547736  0.72260741  0.91282061    -0.33600
H2049       H  0.84969504  0.69237483  0.92210324     0.27800
H2050       H  0.94004724  0.87140768  0.01304515     0.27800
H2051       H  0.86577485  0.76490263  0.51597282     0.18300
H2052       H  0.92116758  0.80160949  0.91689017     0.18300
C2053       C  0.75376412  0.62449342  0.97868881    -0.07500
C2054       C  0.73772135  0.58913196  0.96203621    -0.18600
C2055       C  0.69950921  0.56901417  0.95531047     0.09700
C2056       C  0.67665499  0.58470977  0.96497156    -0.07400
C2057       C  0.69193038  0.61885127  0.98311224    -0.18600
C2058       C  0.72996953  0.63869708  0.99026740     0.09700
S2059       S  0.68174746  0.52349898  0.93444611    -0.33600
S2060       S  0.74615236  0.68184444  0.01421392    -0.33600
H2061       H  0.77125631  0.67740180  0.02809200     0.27800
H2062       H  0.64453862  0.50672494  0.94792705     0.27800
H2063       H  0.75535761  0.57753586  0.45331780     0.18300
H2064       H  0.67447083  0.63086587  0.99109622     0.18300
loop_ 
_geom_bond_atom_site_label_1 
_geom_bond_atom_site_label_2 
_geom_bond_distance 
_geom_bond_site_symmetry_2 
_ccdc_geom_bond_type 
C1            N2   1.358       .  A
C1            N6   1.360       .  A
C1          C481   1.484       .  S
N2            C3   1.356       .  A
C3            N4   1.354       .  A
C3          C493   1.464       .  S
N4            C5   1.357       .  A
C5            N6   1.360       .  A
C5          C505   1.480       .  S
C7            N8   1.357       .  A
C7           N12   1.357       .  A
C7          C187   1.477       .  S
N8            C9   1.357       .  A
C9           N10   1.357       .  A
C9          C214   1.475       .  S
N10          C11   1.356       .  A
C11          N12   1.356       .  A
C11         C199   1.468       .  S
C13          N14   1.357       .  A
C13          N18   1.358       .  A
C13         C178   1.488       .  S
N14          C15   1.357       .  A
C15          N16   1.355       .  A
C15         C151   1.468       .  S
N16          C17   1.353       .  A
C17          N18   1.352       .  A
C17         C163   1.462       .  S
C19          N20   1.359       .  A
C19          N24   1.358       .  A
C19         C142   1.481       .  S
N20          C21   1.358       .  A
C21          N22   1.357       .  A
C21         C118   1.475       .  S
N22          C23   1.356       .  A
C23          N24   1.352       .  A
C23         C130   1.487       .  S
N25          N26   1.319       .  A
N25          N31   1.315       .  A
N25         Mn54   2.194       .  S
N26          C33   1.352       .  A
N27          N29   1.315       .  A
N27          N28   1.320       .  A
N27         Mn43   2.194       .  S
N28          C34   1.353       .  A
N29          N30   1.316       .  A
N29         Mn54   2.189       .  S
N30          C34   1.351       .  A
N31          N32   1.320       .  A
N31         Mn43   2.202       .  S
N32          C33   1.354       .  A
C33         C250   1.476       .  S
C34         C154   1.476       .  S
N35          N36   1.318       .  A
N35        N1589   1.316       .  A
N35         Mn65   2.185       .  S
N36          C44   1.349       .  A
N37          N38   1.316       .  A
N37          N39   1.313       .  A
N37        Mn559   2.187       .  S
N38          C45   1.351       .  A
N39          N40   1.318       .  A
N39       Mn1097   2.188   1_455  S
N40          C45   1.354       .  A
N41          N42   1.319       .  A
N41        N1583   1.316   1_445  A
N41         Mn43   2.201       .  S
N42        C1592   1.352   1_445  A
Mn43        N553   2.187   1_545  S
Mn43      Cl1615   2.541   1_445  S
C44        N1590   1.352       .  A
C44         C101   1.455       .  S
C45         C175   1.479       .  S
N46          N47   1.318       .  A
N46          N52   1.315       .  A
N46       Mn1086   2.194       .  S
N47          C55   1.352       .  A
N48        N1598   1.315       .  A
N48         N307   1.317       .  A
N48         Mn66   2.180       .  S
N49          C56   1.348       .  A
N49         N306   1.317   1_554  A
N50        N1596   1.315   1_445  A
N50         N309   1.318       .  A
N50         Mn54   2.190       .  S
N51        C1604   1.350   1_445  A
N51         N308   1.318   1_554  A
N52          N53   1.320       .  A
N52        Mn582   2.194   1_545  S
N53          C55   1.353       .  A
Mn54       N1078   2.194   1_455  S
Mn54      Cl1615   2.537   1_445  S
C55         C226   1.474       .  S
C56        N1599   1.350       .  A
C56          C89   1.450       .  S
N57          N58   1.316       .  A
N57          N63   1.314       .  A
N57         Mn65   2.192       .  S
N58          C68   1.354       .  A
N59          N60   1.317       .  A
N59          N61   1.313       .  A
N59         Mn66   2.185       .  S
N60          C69   1.353       .  A
N61          N62   1.318       .  A
N61         Mn65   2.191       .  S
N62          C69   1.352       .  A
N63          N64   1.321       .  A
N63         Mn66   2.197       .  S
N64          C68   1.354       .  A
Mn65       N1071   2.188       .  S
Mn65        Cl67   2.539       .  S
Mn66        N568   2.194       .  S
Mn66        Cl67   2.545       .  S
Cl67      Mn1591   2.541       .  S
Cl67      Mn1602   2.537       .  S
C68         C238   1.484       .  S
C69         C166   1.480       .  S
N70          N71   1.321       .  A
N70          N76   1.314       .  A
N70         Mn99   2.199       .  S
N71          C78   1.355       .  A
N72          N74   1.315       .  A
N72          N73   1.321       .  A
N72         Mn88   2.202       .  S
N73          C79   1.353       .  A
N74          N75   1.318       .  A
N74         Mn99   2.189       .  S
N75          C79   1.350       .  A
N76          N77   1.317       .  A
N76         Mn88   2.189       .  S
N77          C78   1.351       .  A
C78         C211   1.476       .  S
C79         C115   1.464       .  S
N80          N81   1.318       .  A
N80        N1634   1.315       .  A
N80        Mn110   2.186       .  S
N81          C89   1.350       .  A
N82          N83   1.319       .  A
N82          N84   1.314       .  A
N82        Mn604   2.198       .  S
N83          C90   1.353       .  A
N84          N85   1.318       .  A
N84       Mn1142   2.184   1_455  S
N85          C90   1.351       .  A
N86          N87   1.317       .  A
N86        N1628   1.315   1_445  A
N86         Mn88   2.183       .  S
N87        C1637   1.349   1_545  A
Mn88        N598   2.198   1_545  S
Mn88      Cl1660   2.542   1_445  S
C89        N1635   1.349       .  A
C90         C139   1.474       .  S
N91          N92   1.318       .  A
N91          N97   1.315       .  A
N91       Mn1131   2.192       .  S
N92         C100   1.351       .  A
N93          N94   1.320       .  A
N93        N1643   1.316       .  A
N93        Mn111   2.200       .  S
N94         C101   1.352       .  A
N95          N96   1.318       .  A
N95        N1641   1.316   1_445  A
N95         Mn99   2.184       .  S
N96        C1649   1.348   1_455  A
N97          N98   1.319       .  A
N97        Mn627   2.195   1_545  S
N98         C100   1.352       .  A
Mn99       N1123   2.192   1_455  S
Mn99      Cl1660   2.539   1_445  S
C100        C190   1.470       .  S
C101       N1644   1.348       .  A
N102        N103   1.315       .  A
N102        N108   1.314       .  A
N102       Mn110   2.181       .  S
N103        C113   1.351       .  A
N104        N105   1.320       .  A
N104        N106   1.315       .  A
N104       Mn111   2.202       .  S
N105        C114   1.353       .  A
N106        N107   1.319       .  A
N106       Mn110   2.192       .  S
N107        C114   1.351       .  A
N108        N109   1.321       .  A
N108       Mn111   2.203       .  S
N109        C113   1.355       .  A
Mn110      N1116   2.184       .  S
Mn110      Cl112   2.535       .  S
Mn111       N613   2.195       .  S
Mn111      Cl112   2.547       .  S
Cl112     Mn1636   2.542       .  S
Cl112     Mn1647   2.539       .  S
C113        C202   1.483       .  S
C114        C127   1.474       .  S
C115        C116   1.402       .  A
C115        C120   1.409       .  A
C116        C117   1.403       .  A
C116        H125   1.084       .  S
C117        C118   1.415       .  A
C117        S121   1.802       .  S
C118        C119   1.404       .  A
C119        C120   1.392       .  A
C119        H126   1.084       .  S
C120        S122   1.806       .  S
S121        H124   1.406       .  S
S122        H123   1.406       .  S
C127        C128   1.401       .  A
C127        C132   1.413       .  A
C128        C129   1.399       .  A
C128        H137   1.084       .  S
C129        C130   1.420       .  A
C129        S133   1.801       .  S
C130        C131   1.406       .  A
C131        C132   1.396       .  A
C131        H138   1.084       .  S
C132        S134   1.803       .  S
S133        H136   1.408       .  S
S134        H135   1.407       .  S
C139        C140   1.404       .  A
C139        C144   1.411       .  A
C140        C141   1.399       .  A
C140        H149   1.084       .  S
C141        C142   1.417       .  A
C141        S145   1.803       .  S
C142        C143   1.405       .  A
C143        C144   1.393       .  A
C143        H150   1.084       .  S
C144        S146   1.803       .  S
S145        H148   1.408       .  S
S146        H147   1.407       .  S
C151        C152   1.402       .  A
C151        C156   1.411       .  A
C152        C153   1.397       .  A
C152        H161   1.084       .  S
C153        C154   1.416       .  A
C153        S157   1.801       .  S
C154        C155   1.404       .  A
C155        C156   1.394       .  A
C155        H162   1.084       .  S
C156        S158   1.804       .  S
S157        H160   1.408       .  S
S158        H159   1.407       .  S
C163        C164   1.397       .  A
C163        C168   1.408       .  A
C164        C165   1.396       .  A
C164        H173   1.084       .  S
C165        C166   1.418       .  A
C165        S169   1.800       .  S
C166        C167   1.407       .  A
C167        C168   1.398       .  A
C167        H174   1.082       .  S
C168        S170   1.809       .  S
S169        H172   1.408       .  S
S170        H171   1.407       .  S
C175        C176   1.404       .  A
C175        C180   1.414       .  A
C176        C177   1.397       .  A
C176        H185   1.084       .  S
C177        C178   1.419       .  A
C177        S181   1.802       .  S
C178        C179   1.407       .  A
C179        C180   1.392       .  A
C179        H186   1.083       .  S
C180        S182   1.802       .  S
S181        H184   1.408       .  S
S182        H183   1.408       .  S
C187        C188   1.405       .  A
C187        C192   1.415       .  A
C188        C189   1.396       .  A
C188        H197   1.084       .  S
C189        C190   1.412       .  A
C189        S193   1.804       .  S
C190        C191   1.402       .  A
C191        C192   1.397       .  A
C191        H198   1.084       .  S
C192        S194   1.804       .  S
S193        H196   1.407       .  S
S194        H195   1.407       .  S
C199        C200   1.401       .  A
C199        C204   1.410       .  A
C200        C201   1.399       .  A
C200        H209   1.084       .  S
C201        C202   1.417       .  A
C201        S205   1.799       .  S
C202        C203   1.407       .  A
C203        C204   1.394       .  A
C203        H210   1.084       .  S
C204        S206   1.805       .  S
S205        H208   1.408       .  S
S206        H207   1.407       .  S
C211        C212   1.404       .  A
C211        C216   1.414       .  A
C212        C213   1.399       .  A
C212        H221   1.084       .  S
C213        C214   1.414       .  A
C213        S217   1.804       .  S
C214        C215   1.404       .  A
C215        C216   1.396       .  A
C215        H222   1.084       .  S
C216        S218   1.805       .  S
S217        H220   1.407       .  S
S218        H219   1.407       .  S
C223        C259   1.484       .  S
C223        C224   1.406       .  A
C223        C228   1.417       .  A
C224        C225   1.400       .  A
C224        H491   1.084       .  S
C225        C226   1.412       .  A
C225        S229   1.803       .  S
C226        C227   1.400       .  A
C227        C228   1.394       .  A
C227        H234   1.084       .  S
C228        S230   1.798       .  S
S229        H232   1.407       .  S
S230        H231   1.406       .  S
H233        C482   1.084   1_554  S
C235        C261   1.464       .  S
C235        C240   1.408       .  A
C235        C494   1.401       .  A
C236        C493   1.401       .  A
C236        C495   1.403       .  A
C236        H245   1.084   1_556  S
C237        C238   1.419       .  A
C237        C494   1.403       .  A
C237        S499   1.802       .  S
C238        C239   1.405       .  A
C239        C240   1.391       .  A
C239        H246   1.083       .  S
C240        S242   1.804       .  S
S241        C495   1.802   1_554  S
S241        H502   1.407       .  S
S242        H243   1.405       .  S
H244        S499   1.407       .  S
C247        C263   1.480       .  S
C247        C248   1.405       .  A
C247        C252   1.415       .  A
C248        C249   1.398       .  A
C248        H515   1.084       .  S
C249        C250   1.412       .  A
C249        S253   1.803       .  S
C250        C251   1.404       .  A
C251        C252   1.398       .  A
C251        H258   1.084       .  S
C252        S254   1.804       .  S
S253        H256   1.407       .  S
S254        H255   1.407       .  S
H257        C506   1.084       .  S
C259        N260   1.358       .  A
C259        N264   1.360       .  A
N260        C261   1.356       .  A
C261        N262   1.354       .  A
N262        C263   1.357       .  A
C263        N264   1.360       .  A
C265        N266   1.357       .  A
C265        N270   1.357       .  A
C265        C445   1.477       .  S
N266        C267   1.357       .  A
C267        N268   1.357       .  A
C267        C472   1.475       .  S
N268        C269   1.356       .  A
C269        N270   1.356       .  A
C269        C457   1.468       .  S
C271        N272   1.357       .  A
C271        N276   1.358       .  A
C271        C436   1.488       .  S
N272        C273   1.357       .  A
C273        N274   1.355       .  A
C273        C409   1.468       .  S
N274        C275   1.353       .  A
C275        N276   1.352       .  A
C275        C421   1.462       .  S
C277        N278   1.359       .  A
C277        N282   1.358       .  A
C277        C400   1.481       .  S
N278        C279   1.358       .  A
C279        N280   1.357       .  A
C279        C376   1.475       .  S
N280        C281   1.356       .  A
C281        N282   1.352       .  A
C281        C388   1.487       .  S
N283        N284   1.319       .  A
N283        N289   1.315       .  A
N283       Mn312   2.194       .  S
N284        C291   1.352       .  A
N285        N287   1.315       .  A
N285        N286   1.320       .  A
N285       Mn301   2.194       .  S
N286        C292   1.353       .  A
N287        N288   1.316       .  A
N287       Mn312   2.189       .  S
N288        C292   1.351       .  A
N289        N290   1.320       .  A
N289       Mn301   2.202       .  S
N290        C291   1.354       .  A
C291        C508   1.476       .  S
C292        C412   1.476       .  S
N293       N1847   1.316       .  A
N293        N294   1.318       .  A
N293       Mn323   2.185       .  S
N294        C302   1.349       .  A
N295        N296   1.316       .  A
N295        N297   1.313       .  A
N295       Mn817   2.187       .  S
N296        C303   1.351       .  A
N297        N298   1.318       .  A
N297      Mn1355   2.188   1_455  S
N298        C303   1.354       .  A
N299       N1841   1.316   1_445  A
N299        N300   1.319       .  A
N299       Mn301   2.201       .  S
N300       C1850   1.352   1_445  A
Mn301       N811   2.187   1_545  S
Mn301     Cl1873   2.541   1_445  S
C302       N1848   1.352       .  A
C302        C359   1.455       .  S
C303        C433   1.479       .  S
N304        N305   1.318       .  A
N304        N310   1.315       .  A
N304      Mn1344   2.194       .  S
N305        C313   1.352       .  A
N306       N1856   1.315       .  A
N306       Mn324   2.180       .  S
N307        C314   1.348       .  A
N308       N1854   1.315   1_445  A
N308       Mn312   2.190       .  S
N309       C1862   1.350   1_445  A
N310        N311   1.320       .  A
N310       Mn840   2.194   1_545  S
N311        C313   1.353       .  A
Mn312      N1336   2.194   1_455  S
Mn312     Cl1873   2.537   1_445  S
C313        C484   1.474       .  S
C314       N1857   1.350       .  A
C314        C347   1.450       .  S
N315        N316   1.316       .  A
N315        N321   1.314       .  A
N315       Mn323   2.192       .  S
N316        C326   1.354       .  A
N317        N318   1.317       .  A
N317        N319   1.313       .  A
N317       Mn324   2.185       .  S
N318        C327   1.353       .  A
N319        N320   1.318       .  A
N319       Mn323   2.191       .  S
N320        C327   1.352       .  A
N321        N322   1.321       .  A
N321       Mn324   2.197       .  S
N322        C326   1.354       .  A
Mn323      N1329   2.188       .  S
Mn323      Cl325   2.539       .  S
Mn324       N826   2.194       .  S
Mn324      Cl325   2.545       .  S
Cl325     Mn1849   2.541       .  S
Cl325     Mn1860   2.537       .  S
C326        C496   1.484       .  S
C327        C424   1.480       .  S
N328        N329   1.321       .  A
N328        N334   1.314       .  A
N328       Mn357   2.199       .  S
N329        C336   1.355       .  A
N330        N332   1.315       .  A
N330        N331   1.321       .  A
N330       Mn346   2.202       .  S
N331        C337   1.353       .  A
N332        N333   1.318       .  A
N332       Mn357   2.189       .  S
N333        C337   1.350       .  A
N334        N335   1.317       .  A
N334       Mn346   2.189       .  S
N335        C336   1.351       .  A
C336        C469   1.476       .  S
C337        C373   1.464       .  S
N338       N1892   1.315       .  A
N338        N339   1.318       .  A
N338       Mn368   2.186       .  S
N339        C347   1.350       .  A
N340        N341   1.319       .  A
N340        N342   1.314       .  A
N340       Mn862   2.198       .  S
N341        C348   1.353       .  A
N342        N343   1.318       .  A
N342      Mn1400   2.184   1_455  S
N343        C348   1.351       .  A
N344       N1886   1.315   1_445  A
N344        N345   1.317       .  A
N344       Mn346   2.183       .  S
N345       C1895   1.349   1_545  A
Mn346       N856   2.198   1_545  S
Mn346     Cl1918   2.542   1_445  S
C347       N1893   1.349       .  A
C348        C397   1.474       .  S
N349        N350   1.318       .  A
N349        N355   1.315       .  A
N349      Mn1389   2.192       .  S
N350        C358   1.351       .  A
N351       N1901   1.316       .  A
N351        N352   1.320       .  A
N351       Mn369   2.200       .  S
N352        C359   1.352       .  A
N353       N1899   1.316   1_445  A
N353        N354   1.318       .  A
N353       Mn357   2.184       .  S
N354       C1907   1.348   1_455  A
N355        N356   1.319       .  A
N355       Mn885   2.195   1_545  S
N356        C358   1.352       .  A
Mn357      N1381   2.192   1_455  S
Mn357     Cl1918   2.539   1_445  S
C358        C448   1.470       .  S
C359       N1902   1.348       .  A
N360        N361   1.315       .  A
N360        N366   1.314       .  A
N360       Mn368   2.181       .  S
N361        C371   1.351       .  A
N362        N363   1.320       .  A
N362        N364   1.315       .  A
N362       Mn369   2.202       .  S
N363        C372   1.353       .  A
N364        N365   1.319       .  A
N364       Mn368   2.192       .  S
N365        C372   1.351       .  A
N366        N367   1.321       .  A
N366       Mn369   2.203       .  S
N367        C371   1.355       .  A
Mn368      N1374   2.184       .  S
Mn368      Cl370   2.535       .  S
Mn369       N871   2.195       .  S
Mn369      Cl370   2.547       .  S
Cl370     Mn1894   2.542       .  S
Cl370     Mn1905   2.539       .  S
C371        C460   1.483       .  S
C372        C385   1.474       .  S
C373        C374   1.402       .  A
C373        C378   1.409       .  A
C374        C375   1.403       .  A
C374        H383   1.084       .  S
C375        C376   1.415       .  A
C375        S379   1.802       .  S
C376        C377   1.404       .  A
C377        C378   1.392       .  A
C377        H384   1.084       .  S
C378        S380   1.806       .  S
S379        H382   1.406       .  S
S380        H381   1.406       .  S
C385        C386   1.401       .  A
C385        C390   1.413       .  A
C386        C387   1.399       .  A
C386        H395   1.084       .  S
C387        C388   1.420       .  A
C387        S391   1.801       .  S
C388        C389   1.406       .  A
C389        C390   1.396       .  A
C389        H396   1.084       .  S
C390        S392   1.803       .  S
S391        H394   1.408       .  S
S392        H393   1.407       .  S
C397        C398   1.404       .  A
C397        C402   1.411       .  A
C398        C399   1.399       .  A
C398        H407   1.084       .  S
C399        C400   1.417       .  A
C399        S403   1.803       .  S
C400        C401   1.405       .  A
C401        C402   1.393       .  A
C401        H408   1.084       .  S
C402        S404   1.803       .  S
S403        H406   1.408       .  S
S404        H405   1.407       .  S
C409        C410   1.402       .  A
C409        C414   1.411       .  A
C410        C411   1.397       .  A
C410        H419   1.084       .  S
C411        C412   1.416       .  A
C411        S415   1.801       .  S
C412        C413   1.404       .  A
C413        C414   1.394       .  A
C413        H420   1.084       .  S
C414        S416   1.804       .  S
S415        H418   1.408       .  S
S416        H417   1.407       .  S
C421        C422   1.397       .  A
C421        C426   1.408       .  A
C422        C423   1.396       .  A
C422        H431   1.084       .  S
C423        C424   1.418       .  A
C423        S427   1.800       .  S
C424        C425   1.407       .  A
C425        C426   1.398       .  A
C425        H432   1.082       .  S
C426        S428   1.809       .  S
S427        H430   1.408       .  S
S428        H429   1.407       .  S
C433        C434   1.404       .  A
C433        C438   1.414       .  A
C434        C435   1.397       .  A
C434        H443   1.084       .  S
C435        C436   1.419       .  A
C435        S439   1.802       .  S
C436        C437   1.407       .  A
C437        C438   1.392       .  A
C437        H444   1.083       .  S
C438        S440   1.802       .  S
S439        H442   1.408       .  S
S440        H441   1.408       .  S
C445        C446   1.405       .  A
C445        C450   1.415       .  A
C446        C447   1.396       .  A
C446        H455   1.084       .  S
C447        C448   1.412       .  A
C447        S451   1.804       .  S
C448        C449   1.402       .  A
C449        C450   1.397       .  A
C449        H456   1.084       .  S
C450        S452   1.804       .  S
S451        H454   1.407       .  S
S452        H453   1.407       .  S
C457        C458   1.401       .  A
C457        C462   1.410       .  A
C458        C459   1.399       .  A
C458        H467   1.084       .  S
C459        C460   1.417       .  A
C459        S463   1.799       .  S
C460        C461   1.407       .  A
C461        C462   1.394       .  A
C461        H468   1.084       .  S
C462        S464   1.805       .  S
S463        H466   1.408       .  S
S464        H465   1.407       .  S
C469        C470   1.404       .  A
C469        C474   1.414       .  A
C470        C471   1.399       .  A
C470        H479   1.084       .  S
C471        C472   1.414       .  A
C471        S475   1.804       .  S
C472        C473   1.404       .  A
C473        C474   1.396       .  A
C473        H480   1.084       .  S
C474        S476   1.805       .  S
S475        H478   1.407       .  S
S476        H477   1.407       .  S
C481        C482   1.406       .  A
C481        C486   1.417       .  A
C482        C483   1.400       .  A
C483        C484   1.412       .  A
C483        S487   1.803   1_556  S
C484        C485   1.400       .  A
C485        C486   1.394       .  A
C485        H492   1.084       .  S
C486        S488   1.798       .  S
S487        H490   1.407       .  S
S488        H489   1.406       .  S
C493        C498   1.408       .  A
C494        H503   1.084       .  S
C495        C496   1.419       .  A
C496        C497   1.405       .  A
C497        C498   1.391       .  A
C497        H504   1.083       .  S
C498        S500   1.804       .  S
S500        H501   1.405       .  S
C505        C506   1.405       .  A
C505        C510   1.415       .  A
C506        C507   1.398       .  A
C507        C508   1.412       .  A
C507        S511   1.803       .  S
C508        C509   1.404       .  A
C509        C510   1.398       .  A
C509        H516   1.084       .  S
C510        S512   1.804   1_556  S
S511        H514   1.407       .  S
S512        H513   1.407       .  S
C517        N518   1.358       .  A
C517        N522   1.360       .  A
C517        C997   1.484       .  S
N518        C519   1.356       .  A
C519        N520   1.354       .  A
C519       C1009   1.464       .  S
N520        C521   1.357       .  A
C521        N522   1.360       .  A
C521       C1021   1.480       .  S
C523        N524   1.357       .  A
C523        N528   1.357       .  A
C523        C703   1.477       .  S
N524        C525   1.357       .  A
C525        N526   1.357       .  A
C525        C730   1.475       .  S
N526        C527   1.356       .  A
C527        N528   1.356       .  A
C527        C715   1.468       .  S
C529        N530   1.357       .  A
C529        N534   1.358       .  A
C529        C694   1.488       .  S
N530        C531   1.357       .  A
C531        N532   1.355       .  A
C531        C667   1.468       .  S
N532        C533   1.353       .  A
C533        N534   1.352       .  A
C533        C679   1.462       .  S
C535        N536   1.359       .  A
C535        N540   1.358       .  A
C535        C658   1.481       .  S
N536        C537   1.358       .  A
C537        N538   1.357       .  A
C537        C634   1.475       .  S
N538        C539   1.356       .  A
C539        N540   1.352       .  A
C539        C646   1.487       .  S
N541        N542   1.319       .  A
N541        N547   1.315       .  A
N541       Mn570   2.194       .  S
N542        C549   1.352       .  A
N543        N545   1.315       .  A
N543        N544   1.320       .  A
N543       Mn559   2.194       .  S
N544        C550   1.353       .  A
N545        N546   1.316       .  A
N545       Mn570   2.189       .  S
N546        C550   1.351       .  A
N547        N548   1.320       .  A
N547       Mn559   2.202       .  S
N548        C549   1.354       .  A
C549        C766   1.476       .  S
C550        C670   1.476       .  S
N551       N1073   1.316   1_565  A
N551        N552   1.318       .  A
N551       Mn581   2.185       .  S
N552        C560   1.349       .  A
N553        N554   1.316       .  A
N553        N555   1.313       .  A
N554        C561   1.351       .  A
N555        N556   1.318       .  A
N555      Mn1613   2.188   1_455  S
N556        C561   1.354       .  A
N557       N1067   1.316   1_455  A
N557        N558   1.319       .  A
N557       Mn559   2.201       .  S
N558       C1076   1.352   1_455  A
Mn559     Cl1099   2.541   1_455  S
C560       N1074   1.352   1_565  A
C560        C617   1.455   1_565  S
C561        C691   1.479       .  S
N562        N563   1.318       .  A
N562        N568   1.315       .  A
N562      Mn1602   2.194       .  S
N563        C571   1.352       .  A
N564       N1082   1.315   1_565  A
N564        N823   1.317       .  A
N564       Mn582   2.180       .  S
N565        C572   1.348       .  A
N565        N822   1.317   1_554  A
N566       N1080   1.315   1_455  A
N566        N825   1.318       .  A
N566       Mn570   2.190       .  S
N567       C1088   1.350   1_455  A
N567        N824   1.318   1_554  A
N568        N569   1.320       .  A
N569        C571   1.353       .  A
Mn570      N1594   2.194   1_455  S
Mn570     Cl1099   2.537   1_455  S
C571        C742   1.474       .  S
C572       N1083   1.350   1_565  A
C572        C605   1.450       .  S
N573        N574   1.316       .  A
N573        N579   1.314       .  A
N573       Mn581   2.192       .  S
N574        C584   1.354       .  A
N575        N576   1.317       .  A
N575        N577   1.313       .  A
N575       Mn582   2.185       .  S
N576        C585   1.353       .  A
N577        N578   1.318       .  A
N577       Mn581   2.191       .  S
N578        C585   1.352       .  A
N579        N580   1.321       .  A
N579       Mn582   2.197       .  S
N580        C584   1.354       .  A
Mn581      N1587   2.188       .  S
Mn581      Cl583   2.539       .  S
Mn582      Cl583   2.545       .  S
Cl583     Mn1075   2.541   1_565  S
Cl583     Mn1086   2.537   1_565  S
C584        C754   1.484       .  S
C585        C682   1.480       .  S
N586        N587   1.321       .  A
N586        N592   1.314       .  A
N586       Mn615   2.199       .  S
N587        C594   1.355       .  A
N588        N590   1.315       .  A
N588        N589   1.321       .  A
N588       Mn604   2.202       .  S
N589        C595   1.353       .  A
N590        N591   1.318       .  A
N590       Mn615   2.189       .  S
N591        C595   1.350       .  A
N592        N593   1.317       .  A
N592       Mn604   2.189       .  S
N593        C594   1.351       .  A
C594        C727   1.476       .  S
C595        C631   1.464       .  S
N596       N1118   1.315   1_565  A
N596        N597   1.318       .  A
N596       Mn626   2.186       .  S
N597        C605   1.350       .  A
N598        N599   1.319       .  A
N598        N600   1.314       .  A
N599        C606   1.353       .  A
N600        N601   1.318       .  A
N600      Mn1658   2.184   1_455  S
N601        C606   1.351       .  A
N602       N1112   1.315   1_455  A
N602        N603   1.317       .  A
N602       Mn604   2.183       .  S
N603       C1121   1.349       .  A
Mn604     Cl1144   2.542   1_455  S
C605       N1119   1.349   1_565  A
C606        C655   1.474       .  S
N607        N608   1.318       .  A
N607        N613   1.315       .  A
N607      Mn1647   2.192       .  S
N608        C616   1.351       .  A
N609       N1127   1.316   1_565  A
N609        N610   1.320       .  A
N609       Mn627   2.200       .  S
N610        C617   1.352   1_565  A
N611       N1125   1.316   1_455  A
N611        N612   1.318       .  A
N611       Mn615   2.184       .  S
N612       C1133   1.348   1_455  A
N613        N614   1.319       .  A
N614        C616   1.352       .  A
Mn615      N1639   2.192   1_455  S
Mn615     Cl1144   2.539   1_455  S
C616        C706   1.470       .  S
C617       N1128   1.348       .  A
N618        N619   1.315       .  A
N618        N624   1.314       .  A
N618       Mn626   2.181       .  S
N619        C629   1.351       .  A
N620        N621   1.320       .  A
N620        N622   1.315       .  A
N620       Mn627   2.202       .  S
N621        C630   1.353       .  A
N622        N623   1.319       .  A
N622       Mn626   2.192       .  S
N623        C630   1.351       .  A
N624        N625   1.321       .  A
N624       Mn627   2.203       .  S
N625        C629   1.355       .  A
Mn626      N1632   2.184       .  S
Mn626      Cl628   2.535       .  S
Mn627      Cl628   2.547       .  S
Cl628     Mn1120   2.542   1_565  S
Cl628     Mn1131   2.539   1_565  S
C629        C718   1.483       .  S
C630        C643   1.474       .  S
C631        C632   1.402       .  A
C631        C636   1.409       .  A
C632        C633   1.403       .  A
C632        H641   1.084       .  S
C633        C634   1.415       .  A
C633        S637   1.802       .  S
C634        C635   1.404       .  A
C635        C636   1.392       .  A
C635        H642   1.084       .  S
C636        S638   1.806       .  S
S637        H640   1.406       .  S
S638        H639   1.406       .  S
C643        C644   1.401       .  A
C643        C648   1.413       .  A
C644        C645   1.399       .  A
C644        H653   1.084       .  S
C645        C646   1.420       .  A
C645        S649   1.801       .  S
C646        C647   1.406       .  A
C647        C648   1.396       .  A
C647        H654   1.084       .  S
C648        S650   1.803       .  S
S649        H652   1.408       .  S
S650        H651   1.407       .  S
C655        C656   1.404       .  A
C655        C660   1.411       .  A
C656        C657   1.399       .  A
C656        H665   1.084       .  S
C657        C658   1.417       .  A
C657        S661   1.803       .  S
C658        C659   1.405       .  A
C659        C660   1.393       .  A
C659        H666   1.084       .  S
C660        S662   1.803       .  S
S661        H664   1.408       .  S
S662        H663   1.407       .  S
C667        C668   1.402       .  A
C667        C672   1.411       .  A
C668        C669   1.397       .  A
C668        H677   1.084       .  S
C669        C670   1.416       .  A
C669        S673   1.801       .  S
C670        C671   1.404       .  A
C671        C672   1.394       .  A
C671        H678   1.084       .  S
C672        S674   1.804       .  S
S673        H676   1.408       .  S
S674        H675   1.407       .  S
C679        C680   1.397       .  A
C679        C684   1.408       .  A
C680        C681   1.396       .  A
C680        H689   1.084       .  S
C681        C682   1.418       .  A
C681        S685   1.800       .  S
C682        C683   1.407       .  A
C683        C684   1.398       .  A
C683        H690   1.082       .  S
C684        S686   1.809       .  S
S685        H688   1.408       .  S
S686        H687   1.407       .  S
C691        C692   1.404       .  A
C691        C696   1.414       .  A
C692        C693   1.397       .  A
C692        H701   1.084       .  S
C693        C694   1.419       .  A
C693        S697   1.802       .  S
C694        C695   1.407       .  A
C695        C696   1.392       .  A
C695        H702   1.083       .  S
C696        S698   1.802       .  S
S697        H700   1.408       .  S
S698        H699   1.408       .  S
C703        C704   1.405       .  A
C703        C708   1.415       .  A
C704        C705   1.396       .  A
C704        H713   1.084       .  S
C705        C706   1.412       .  A
C705        S709   1.804       .  S
C706        C707   1.402       .  A
C707        C708   1.397       .  A
C707        H714   1.084       .  S
C708        S710   1.804       .  S
S709        H712   1.407       .  S
S710        H711   1.407       .  S
C715        C716   1.401       .  A
C715        C720   1.410       .  A
C716        C717   1.399       .  A
C716        H725   1.084       .  S
C717        C718   1.417       .  A
C717        S721   1.799       .  S
C718        C719   1.407       .  A
C719        C720   1.394       .  A
C719        H726   1.084       .  S
C720        S722   1.805       .  S
S721        H724   1.408       .  S
S722        H723   1.407       .  S
C727        C728   1.404       .  A
C727        C732   1.414       .  A
C728        C729   1.399       .  A
C728        H737   1.084       .  S
C729        C730   1.414       .  A
C729        S733   1.804       .  S
C730        C731   1.404       .  A
C731        C732   1.396       .  A
C731        H738   1.084       .  S
C732        S734   1.805       .  S
S733        H736   1.407       .  S
S734        H735   1.407       .  S
C739        C775   1.484       .  S
C739        C740   1.406       .  A
C739        C744   1.417       .  A
C740        C741   1.400       .  A
C740       H1007   1.084       .  S
C741        C742   1.412       .  A
C741        S745   1.803       .  S
C742        C743   1.400       .  A
C743        C744   1.394       .  A
C743        H750   1.084       .  S
C744        S746   1.798       .  S
S745        H748   1.407       .  S
S746        H747   1.406       .  S
H749        C998   1.084   1_554  S
C751        C777   1.464       .  S
C751       C1010   1.401       .  A
C751        C756   1.408       .  A
C752       C1009   1.401       .  A
C752       C1011   1.403       .  A
C752        H761   1.084   1_556  S
C753       C1010   1.403       .  A
C753        C754   1.419       .  A
C753       S1015   1.802       .  S
C754        C755   1.405       .  A
C755        C756   1.391       .  A
C755        H762   1.083       .  S
C756        S758   1.804       .  S
S757       C1011   1.802   1_554  S
S757       H1018   1.407       .  S
S758        H759   1.405       .  S
H760       S1015   1.407       .  S
C763        C779   1.480       .  S
C763        C764   1.405       .  A
C763        C768   1.415       .  A
C764        C765   1.398       .  A
C764       H1031   1.084       .  S
C765        C766   1.412       .  A
C765        S769   1.803       .  S
C766        C767   1.404       .  A
C767        C768   1.398       .  A
C767        H774   1.084       .  S
C768        S770   1.804       .  S
S769        H772   1.407       .  S
S770        H771   1.407       .  S
H773       C1022   1.084       .  S
C775        N776   1.358       .  A
C775        N780   1.360       .  A
N776        C777   1.356       .  A
C777        N778   1.354       .  A
N778        C779   1.357       .  A
C779        N780   1.360       .  A
C781        N782   1.357       .  A
C781        N786   1.357       .  A
C781        C961   1.477       .  S
N782        C783   1.357       .  A
C783        N784   1.357       .  A
C783        C988   1.475       .  S
N784        C785   1.356       .  A
C785        N786   1.356       .  A
C785        C973   1.468       .  S
C787        N788   1.357       .  A
C787        N792   1.358       .  A
C787        C952   1.488       .  S
N788        C789   1.357       .  A
C789        N790   1.355       .  A
C789        C925   1.468       .  S
N790        C791   1.353       .  A
C791        N792   1.352       .  A
C791        C937   1.462       .  S
C793        N794   1.359       .  A
C793        N798   1.358       .  A
C793        C916   1.481       .  S
N794        C795   1.358       .  A
C795        N796   1.357       .  A
C795        C892   1.475       .  S
N796        C797   1.356       .  A
C797        N798   1.352       .  A
C797        C904   1.487       .  S
N799        N800   1.319       .  A
N799        N805   1.315       .  A
N799       Mn828   2.194       .  S
N800        C807   1.352       .  A
N801        N803   1.315       .  A
N801        N802   1.320       .  A
N801       Mn817   2.194       .  S
N802        C808   1.353       .  A
N803        N804   1.316       .  A
N803       Mn828   2.189       .  S
N804        C808   1.351       .  A
N805        N806   1.320       .  A
N805       Mn817   2.202       .  S
N806        C807   1.354       .  A
C807       C1024   1.476       .  S
C808        C928   1.476       .  S
N809       N1331   1.316   1_565  A
N809        N810   1.318       .  A
N809       Mn839   2.185       .  S
N810        C818   1.349       .  A
N811        N812   1.316       .  A
N811        N813   1.313       .  A
N812        C819   1.351       .  A
N813        N814   1.318       .  A
N813      Mn1871   2.188   1_455  S
N814        C819   1.354       .  A
N815       N1325   1.316   1_455  A
N815        N816   1.319       .  A
N815       Mn817   2.201       .  S
N816       C1334   1.352   1_455  A
Mn817     Cl1357   2.541   1_455  S
C818       N1332   1.352   1_565  A
C818        C875   1.455   1_565  S
C819        C949   1.479       .  S
N820        N821   1.318       .  A
N820        N826   1.315       .  A
N820      Mn1860   2.194       .  S
N821        C829   1.352       .  A
N822       N1340   1.315   1_565  A
N822       Mn840   2.180       .  S
N823        C830   1.348       .  A
N824       N1338   1.315   1_455  A
N824       Mn828   2.190       .  S
N825       C1346   1.350   1_455  A
N826        N827   1.320       .  A
N827        C829   1.353       .  A
Mn828      N1852   2.194   1_455  S
Mn828     Cl1357   2.537   1_455  S
C829       C1000   1.474       .  S
C830       N1341   1.350   1_565  A
C830        C863   1.450       .  S
N831        N832   1.316       .  A
N831        N837   1.314       .  A
N831       Mn839   2.192       .  S
N832        C842   1.354       .  A
N833        N834   1.317       .  A
N833        N835   1.313       .  A
N833       Mn840   2.185       .  S
N834        C843   1.353       .  A
N835        N836   1.318       .  A
N835       Mn839   2.191       .  S
N836        C843   1.352       .  A
N837        N838   1.321       .  A
N837       Mn840   2.197       .  S
N838        C842   1.354       .  A
Mn839      N1845   2.188       .  S
Mn839      Cl841   2.539       .  S
Mn840      Cl841   2.545       .  S
Cl841     Mn1333   2.541   1_565  S
Cl841     Mn1344   2.537   1_565  S
C842       C1012   1.484       .  S
C843        C940   1.480       .  S
N844        N845   1.321       .  A
N844        N850   1.314       .  A
N844       Mn873   2.199       .  S
N845        C852   1.355       .  A
N846        N848   1.315       .  A
N846        N847   1.321       .  A
N846       Mn862   2.202       .  S
N847        C853   1.353       .  A
N848        N849   1.318       .  A
N848       Mn873   2.189       .  S
N849        C853   1.350       .  A
N850        N851   1.317       .  A
N850       Mn862   2.189       .  S
N851        C852   1.351       .  A
C852        C985   1.476       .  S
C853        C889   1.464       .  S
N854       N1376   1.315   1_565  A
N854        N855   1.318       .  A
N854       Mn884   2.186       .  S
N855        C863   1.350       .  A
N856        N857   1.319       .  A
N856        N858   1.314       .  A
N857        C864   1.353       .  A
N858        N859   1.318       .  A
N858      Mn1916   2.184   1_455  S
N859        C864   1.351       .  A
N860       N1370   1.315   1_455  A
N860        N861   1.317       .  A
N860       Mn862   2.183       .  S
N861       C1379   1.349       .  A
Mn862     Cl1402   2.542   1_455  S
C863       N1377   1.349   1_565  A
C864        C913   1.474       .  S
N865        N866   1.318       .  A
N865        N871   1.315       .  A
N865      Mn1905   2.192       .  S
N866        C874   1.351       .  A
N867       N1385   1.316   1_565  A
N867        N868   1.320       .  A
N867       Mn885   2.200       .  S
N868        C875   1.352   1_565  A
N869       N1383   1.316   1_455  A
N869        N870   1.318       .  A
N869       Mn873   2.184       .  S
N870       C1391   1.348   1_455  A
N871        N872   1.319       .  A
N872        C874   1.352       .  A
Mn873      N1897   2.192   1_455  S
Mn873     Cl1402   2.539   1_455  S
C874        C964   1.470       .  S
C875       N1386   1.348       .  A
N876        N877   1.315       .  A
N876        N882   1.314       .  A
N876       Mn884   2.181       .  S
N877        C887   1.351       .  A
N878        N879   1.320       .  A
N878        N880   1.315       .  A
N878       Mn885   2.202       .  S
N879        C888   1.353       .  A
N880        N881   1.319       .  A
N880       Mn884   2.192       .  S
N881        C888   1.351       .  A
N882        N883   1.321       .  A
N882       Mn885   2.203       .  S
N883        C887   1.355       .  A
Mn884      N1890   2.184       .  S
Mn884      Cl886   2.535       .  S
Mn885      Cl886   2.547       .  S
Cl886     Mn1378   2.542   1_565  S
Cl886     Mn1389   2.539   1_565  S
C887        C976   1.483       .  S
C888        C901   1.474       .  S
C889        C890   1.402       .  A
C889        C894   1.409       .  A
C890        C891   1.403       .  A
C890        H899   1.084       .  S
C891        C892   1.415       .  A
C891        S895   1.802       .  S
C892        C893   1.404       .  A
C893        C894   1.392       .  A
C893        H900   1.084       .  S
C894        S896   1.806       .  S
S895        H898   1.406       .  S
S896        H897   1.406       .  S
C901        C902   1.401       .  A
C901        C906   1.413       .  A
C902        C903   1.399       .  A
C902        H911   1.084       .  S
C903        C904   1.420       .  A
C903        S907   1.801       .  S
C904        C905   1.406       .  A
C905        C906   1.396       .  A
C905        H912   1.084       .  S
C906        S908   1.803       .  S
S907        H910   1.408       .  S
S908        H909   1.407       .  S
C913        C914   1.404       .  A
C913        C918   1.411       .  A
C914        C915   1.399       .  A
C914        H923   1.084       .  S
C915        C916   1.417       .  A
C915        S919   1.803       .  S
C916        C917   1.405       .  A
C917        C918   1.393       .  A
C917        H924   1.084       .  S
C918        S920   1.803       .  S
S919        H922   1.408       .  S
S920        H921   1.407       .  S
C925        C926   1.402       .  A
C925        C930   1.411       .  A
C926        C927   1.397       .  A
C926        H935   1.084       .  S
C927        C928   1.416       .  A
C927        S931   1.801       .  S
C928        C929   1.404       .  A
C929        C930   1.394       .  A
C929        H936   1.084       .  S
C930        S932   1.804       .  S
S931        H934   1.408       .  S
S932        H933   1.407       .  S
C937        C938   1.397       .  A
C937        C942   1.408       .  A
C938        C939   1.396       .  A
C938        H947   1.084       .  S
C939        C940   1.418       .  A
C939        S943   1.800       .  S
C940        C941   1.407       .  A
C941        C942   1.398       .  A
C941        H948   1.082       .  S
C942        S944   1.809       .  S
S943        H946   1.408       .  S
S944        H945   1.407       .  S
C949        C950   1.404       .  A
C949        C954   1.414       .  A
C950        C951   1.397       .  A
C950        H959   1.084       .  S
C951        C952   1.419       .  A
C951        S955   1.802       .  S
C952        C953   1.407       .  A
C953        C954   1.392       .  A
C953        H960   1.083       .  S
C954        S956   1.802       .  S
S955        H958   1.408       .  S
S956        H957   1.408       .  S
C961        C962   1.405       .  A
C961        C966   1.415       .  A
C962        C963   1.396       .  A
C962        H971   1.084       .  S
C963        C964   1.412       .  A
C963        S967   1.804       .  S
C964        C965   1.402       .  A
C965        C966   1.397       .  A
C965        H972   1.084       .  S
C966        S968   1.804       .  S
S967        H970   1.407       .  S
S968        H969   1.407       .  S
C973        C974   1.401       .  A
C973        C978   1.410       .  A
C974        C975   1.399       .  A
C974        H983   1.084       .  S
C975        C976   1.417       .  A
C975        S979   1.799       .  S
C976        C977   1.407       .  A
C977        C978   1.394       .  A
C977        H984   1.084       .  S
C978        S980   1.805       .  S
S979        H982   1.408       .  S
S980        H981   1.407       .  S
C985        C986   1.404       .  A
C985        C990   1.414       .  A
C986        C987   1.399       .  A
C986        H995   1.084       .  S
C987        C988   1.414       .  A
C987        S991   1.804       .  S
C988        C989   1.404       .  A
C989        C990   1.396       .  A
C989        H996   1.084       .  S
C990        S992   1.805       .  S
S991        H994   1.407       .  S
S992        H993   1.407       .  S
C997        C998   1.406       .  A
C997       C1002   1.417       .  A
C998        C999   1.400       .  A
C999       C1000   1.412       .  A
C999       S1003   1.803   1_556  S
C1000      C1001   1.400       .  A
C1001      C1002   1.394       .  A
C1001      H1008   1.084       .  S
C1002      S1004   1.798       .  S
S1003      H1006   1.407       .  S
S1004      H1005   1.406       .  S
C1009      C1014   1.408       .  A
C1010      H1019   1.084       .  S
C1011      C1012   1.419       .  A
C1012      C1013   1.405       .  A
C1013      C1014   1.391       .  A
C1013      H1020   1.083       .  S
C1014      S1016   1.804       .  S
S1016      H1017   1.405       .  S
C1021      C1022   1.405       .  A
C1021      C1026   1.415       .  A
C1022      C1023   1.398       .  A
C1023      C1024   1.412       .  A
C1023      S1027   1.803       .  S
C1024      C1025   1.404       .  A
C1025      C1026   1.398       .  A
C1025      H1032   1.084       .  S
C1026      S1028   1.804   1_556  S
S1027      H1030   1.407       .  S
S1028      H1029   1.407       .  S
C1033      N1034   1.358       .  A
C1033      N1038   1.360       .  A
C1033      C1513   1.484       .  S
N1034      C1035   1.356       .  A
C1035      N1036   1.354       .  A
C1035      C1525   1.464       .  S
N1036      C1037   1.357       .  A
C1037      N1038   1.360       .  A
C1037      C1537   1.480       .  S
C1039      N1040   1.357       .  A
C1039      N1044   1.357       .  A
C1039      C1219   1.477       .  S
N1040      C1041   1.357       .  A
C1041      N1042   1.357       .  A
C1041      C1246   1.475       .  S
N1042      C1043   1.356       .  A
C1043      N1044   1.356       .  A
C1043      C1231   1.468       .  S
C1045      N1046   1.357       .  A
C1045      N1050   1.358       .  A
C1045      C1210   1.488       .  S
N1046      C1047   1.357       .  A
C1047      N1048   1.355       .  A
C1047      C1183   1.468       .  S
N1048      C1049   1.353       .  A
C1049      N1050   1.352       .  A
C1049      C1195   1.462       .  S
C1051      N1052   1.359       .  A
C1051      N1056   1.358       .  A
C1051      C1174   1.481       .  S
N1052      C1053   1.358       .  A
C1053      N1054   1.357       .  A
C1053      C1150   1.475       .  S
N1054      C1055   1.356       .  A
C1055      N1056   1.352       .  A
C1055      C1162   1.487       .  S
N1057      N1058   1.319       .  A
N1057      N1063   1.315       .  A
N1057     Mn1086   2.194       .  S
N1058      C1065   1.352       .  A
N1059      N1061   1.315       .  A
N1059      N1060   1.320       .  A
N1059     Mn1075   2.194       .  S
N1060      C1066   1.353       .  A
N1061      N1062   1.316       .  A
N1061     Mn1086   2.189       .  S
N1062      C1066   1.351       .  A
N1063      N1064   1.320       .  A
N1063     Mn1075   2.202       .  S
N1064      C1065   1.354       .  A
C1065      C1282   1.476       .  S
C1066      C1186   1.476       .  S
N1067      N1068   1.318       .  A
N1067     Mn1097   2.185       .  S
N1068      C1076   1.349       .  A
N1069      N1070   1.316       .  A
N1069      N1071   1.313       .  A
N1069     Mn1591   2.187       .  S
N1070      C1077   1.351       .  A
N1071      N1072   1.318       .  A
N1072      C1077   1.354       .  A
N1073      N1074   1.319       .  A
N1073     Mn1075   2.201       .  S
Mn1075     N1585   2.187   1_545  S
C1076      C1133   1.455       .  S
C1077      C1207   1.479       .  S
N1078      N1079   1.318       .  A
N1078      N1084   1.315       .  A
N1079      C1087   1.352       .  A
N1080      N1339   1.317       .  A
N1080     Mn1098   2.180       .  S
N1081      C1088   1.348       .  A
N1081      N1338   1.317   1_554  A
N1082      N1341   1.318       .  A
N1082     Mn1086   2.190       .  S
N1083      N1340   1.318   1_554  A
N1084      N1085   1.320       .  A
N1084     Mn1614   2.194   1_545  S
N1085      C1087   1.353       .  A
C1087      C1258   1.474       .  S
C1088      C1121   1.450   1_655  S
N1089      N1090   1.316       .  A
N1089      N1095   1.314       .  A
N1089     Mn1097   2.192       .  S
N1090      C1100   1.354       .  A
N1091      N1092   1.317       .  A
N1091      N1093   1.313       .  A
N1091     Mn1098   2.185       .  S
N1092      C1101   1.353       .  A
N1093      N1094   1.318       .  A
N1093     Mn1097   2.191       .  S
N1094      C1101   1.352       .  A
N1095      N1096   1.321       .  A
N1095     Mn1098   2.197       .  S
N1096      C1100   1.354       .  A
Mn1097    Cl1099   2.539       .  S
Mn1098     N1600   2.194       .  S
Mn1098    Cl1099   2.545       .  S
C1100      C1270   1.484       .  S
C1101      C1198   1.480       .  S
N1102      N1103   1.321       .  A
N1102      N1108   1.314       .  A
N1102     Mn1131   2.199       .  S
N1103      C1110   1.355       .  A
N1104      N1106   1.315       .  A
N1104      N1105   1.321       .  A
N1104     Mn1120   2.202       .  S
N1105      C1111   1.353       .  A
N1106      N1107   1.318       .  A
N1106     Mn1131   2.189       .  S
N1107      C1111   1.350       .  A
N1108      N1109   1.317       .  A
N1108     Mn1120   2.189       .  S
N1109      C1110   1.351       .  A
C1110      C1243   1.476       .  S
C1111      C1147   1.464       .  S
N1112      N1113   1.318       .  A
N1112     Mn1142   2.186       .  S
N1113      C1121   1.350   1_655  A
N1114      N1115   1.319       .  A
N1114      N1116   1.314       .  A
N1114     Mn1636   2.198       .  S
N1115      C1122   1.353       .  A
N1116      N1117   1.318       .  A
N1117      C1122   1.351       .  A
N1118      N1119   1.317       .  A
N1118     Mn1120   2.183       .  S
Mn1120     N1630   2.198   1_545  S
C1122      C1171   1.474       .  S
N1123      N1124   1.318       .  A
N1123      N1129   1.315       .  A
N1124      C1132   1.351       .  A
N1125      N1126   1.320       .  A
N1125     Mn1143   2.200       .  S
N1126      C1133   1.352       .  A
N1127      N1128   1.318       .  A
N1127     Mn1131   2.184       .  S
N1129      N1130   1.319       .  A
N1129     Mn1659   2.195   1_545  S
N1130      C1132   1.352       .  A
C1132      C1222   1.470       .  S
N1134      N1135   1.315       .  A
N1134      N1140   1.314       .  A
N1134     Mn1142   2.181       .  S
N1135      C1145   1.351       .  A
N1136      N1137   1.320       .  A
N1136      N1138   1.315       .  A
N1136     Mn1143   2.202       .  S
N1137      C1146   1.353       .  A
N1138      N1139   1.319       .  A
N1138     Mn1142   2.192       .  S
N1139      C1146   1.351       .  A
N1140      N1141   1.321       .  A
N1140     Mn1143   2.203       .  S
N1141      C1145   1.355       .  A
Mn1142    Cl1144   2.535       .  S
Mn1143     N1645   2.195       .  S
Mn1143    Cl1144   2.547       .  S
C1145      C1234   1.483       .  S
C1146      C1159   1.474       .  S
C1147      C1148   1.402       .  A
C1147      C1152   1.409       .  A
C1148      C1149   1.403       .  A
C1148      H1157   1.084       .  S
C1149      C1150   1.415       .  A
C1149      S1153   1.802       .  S
C1150      C1151   1.404       .  A
C1151      C1152   1.392       .  A
C1151      H1158   1.084       .  S
C1152      S1154   1.806       .  S
S1153      H1156   1.406       .  S
S1154      H1155   1.406       .  S
C1159      C1160   1.401       .  A
C1159      C1164   1.413       .  A
C1160      C1161   1.399       .  A
C1160      H1169   1.084       .  S
C1161      C1162   1.420       .  A
C1161      S1165   1.801       .  S
C1162      C1163   1.406       .  A
C1163      C1164   1.396       .  A
C1163      H1170   1.084       .  S
C1164      S1166   1.803       .  S
S1165      H1168   1.408       .  S
S1166      H1167   1.407       .  S
C1171      C1172   1.404       .  A
C1171      C1176   1.411       .  A
C1172      C1173   1.399       .  A
C1172      H1181   1.084       .  S
C1173      C1174   1.417       .  A
C1173      S1177   1.803       .  S
C1174      C1175   1.405       .  A
C1175      C1176   1.393       .  A
C1175      H1182   1.084       .  S
C1176      S1178   1.803       .  S
S1177      H1180   1.408       .  S
S1178      H1179   1.407       .  S
C1183      C1184   1.402       .  A
C1183      C1188   1.411       .  A
C1184      C1185   1.397       .  A
C1184      H1193   1.084       .  S
C1185      C1186   1.416       .  A
C1185      S1189   1.801       .  S
C1186      C1187   1.404       .  A
C1187      C1188   1.394       .  A
C1187      H1194   1.084       .  S
C1188      S1190   1.804       .  S
S1189      H1192   1.408       .  S
S1190      H1191   1.407       .  S
C1195      C1196   1.397       .  A
C1195      C1200   1.408       .  A
C1196      C1197   1.396       .  A
C1196      H1205   1.084       .  S
C1197      C1198   1.418       .  A
C1197      S1201   1.800       .  S
C1198      C1199   1.407       .  A
C1199      C1200   1.398       .  A
C1199      H1206   1.082       .  S
C1200      S1202   1.809       .  S
S1201      H1204   1.408       .  S
S1202      H1203   1.407       .  S
C1207      C1208   1.404       .  A
C1207      C1212   1.414       .  A
C1208      C1209   1.397       .  A
C1208      H1217   1.084       .  S
C1209      C1210   1.419       .  A
C1209      S1213   1.802       .  S
C1210      C1211   1.407       .  A
C1211      C1212   1.392       .  A
C1211      H1218   1.083       .  S
C1212      S1214   1.802       .  S
S1213      H1216   1.408       .  S
S1214      H1215   1.408       .  S
C1219      C1220   1.405       .  A
C1219      C1224   1.415       .  A
C1220      C1221   1.396       .  A
C1220      H1229   1.084       .  S
C1221      C1222   1.412       .  A
C1221      S1225   1.804       .  S
C1222      C1223   1.402       .  A
C1223      C1224   1.397       .  A
C1223      H1230   1.084       .  S
C1224      S1226   1.804       .  S
S1225      H1228   1.407       .  S
S1226      H1227   1.407       .  S
C1231      C1232   1.401       .  A
C1231      C1236   1.410       .  A
C1232      C1233   1.399       .  A
C1232      H1241   1.084       .  S
C1233      C1234   1.417       .  A
C1233      S1237   1.799       .  S
C1234      C1235   1.407       .  A
C1235      C1236   1.394       .  A
C1235      H1242   1.084       .  S
C1236      S1238   1.805       .  S
S1237      H1240   1.408       .  S
S1238      H1239   1.407       .  S
C1243      C1244   1.404       .  A
C1243      C1248   1.414       .  A
C1244      C1245   1.399       .  A
C1244      H1253   1.084       .  S
C1245      C1246   1.414       .  A
C1245      S1249   1.804       .  S
C1246      C1247   1.404       .  A
C1247      C1248   1.396       .  A
C1247      H1254   1.084       .  S
C1248      S1250   1.805       .  S
S1249      H1252   1.407       .  S
S1250      H1251   1.407       .  S
C1255      C1291   1.484       .  S
C1255      C1256   1.406       .  A
C1255      C1260   1.417       .  A
C1256      C1257   1.400       .  A
C1256      H1523   1.084       .  S
C1257      C1258   1.412       .  A
C1257      S1261   1.803       .  S
C1258      C1259   1.400       .  A
C1259      C1260   1.394       .  A
C1259      H1266   1.084       .  S
C1260      S1262   1.798       .  S
S1261      H1264   1.407       .  S
S1262      H1263   1.406       .  S
H1265      C1514   1.084   1_554  S
C1267      C1293   1.464       .  S
C1267      C1526   1.401       .  A
C1267      C1272   1.408       .  A
C1268      C1525   1.401       .  A
C1268      C1527   1.403       .  A
C1268      H1277   1.084   1_556  S
C1269      C1526   1.403       .  A
C1269      C1270   1.419       .  A
C1269      S1531   1.802       .  S
C1270      C1271   1.405       .  A
C1271      C1272   1.391       .  A
C1271      H1278   1.083       .  S
C1272      S1274   1.804       .  S
S1273      C1527   1.802   1_554  S
S1273      H1534   1.407       .  S
S1274      H1275   1.405       .  S
H1276      S1531   1.407       .  S
C1279      C1295   1.480       .  S
C1279      C1280   1.405       .  A
C1279      C1284   1.415       .  A
C1280      C1281   1.398       .  A
C1280      H1547   1.084       .  S
C1281      C1282   1.412       .  A
C1281      S1285   1.803       .  S
C1282      C1283   1.404       .  A
C1283      C1284   1.398       .  A
C1283      H1290   1.084       .  S
C1284      S1286   1.804       .  S
S1285      H1288   1.407       .  S
S1286      H1287   1.407       .  S
H1289      C1538   1.084       .  S
C1291      N1292   1.358       .  A
C1291      N1296   1.360       .  A
N1292      C1293   1.356       .  A
C1293      N1294   1.354       .  A
N1294      C1295   1.357       .  A
C1295      N1296   1.360       .  A
C1297      N1298   1.357       .  A
C1297      N1302   1.357       .  A
C1297      C1477   1.477       .  S
N1298      C1299   1.357       .  A
C1299      N1300   1.357       .  A
C1299      C1504   1.475       .  S
N1300      C1301   1.356       .  A
C1301      N1302   1.356       .  A
C1301      C1489   1.468       .  S
C1303      N1304   1.357       .  A
C1303      N1308   1.358       .  A
C1303      C1468   1.488       .  S
N1304      C1305   1.357       .  A
C1305      N1306   1.355       .  A
C1305      C1441   1.468       .  S
N1306      C1307   1.353       .  A
C1307      N1308   1.352       .  A
C1307      C1453   1.462       .  S
C1309      N1310   1.359       .  A
C1309      N1314   1.358       .  A
C1309      C1432   1.481       .  S
N1310      C1311   1.358       .  A
C1311      N1312   1.357       .  A
C1311      C1408   1.475       .  S
N1312      C1313   1.356       .  A
C1313      N1314   1.352       .  A
C1313      C1420   1.487       .  S
N1315      N1316   1.319       .  A
N1315      N1321   1.315       .  A
N1315     Mn1344   2.194       .  S
N1316      C1323   1.352       .  A
N1317      N1319   1.315       .  A
N1317      N1318   1.320       .  A
N1317     Mn1333   2.194       .  S
N1318      C1324   1.353       .  A
N1319      N1320   1.316       .  A
N1319     Mn1344   2.189       .  S
N1320      C1324   1.351       .  A
N1321      N1322   1.320       .  A
N1321     Mn1333   2.202       .  S
N1322      C1323   1.354       .  A
C1323      C1540   1.476       .  S
C1324      C1444   1.476       .  S
N1325      N1326   1.318       .  A
N1325     Mn1355   2.185       .  S
N1326      C1334   1.349       .  A
N1327      N1328   1.316       .  A
N1327      N1329   1.313       .  A
N1327     Mn1849   2.187       .  S
N1328      C1335   1.351       .  A
N1329      N1330   1.318       .  A
N1330      C1335   1.354       .  A
N1331      N1332   1.319       .  A
N1331     Mn1333   2.201       .  S
Mn1333     N1843   2.187   1_545  S
C1334      C1391   1.455       .  S
C1335      C1465   1.479       .  S
N1336      N1337   1.318       .  A
N1336      N1342   1.315       .  A
N1337      C1345   1.352       .  A
N1338     Mn1356   2.180       .  S
N1339      C1346   1.348       .  A
N1340     Mn1344   2.190       .  S
N1342      N1343   1.320       .  A
N1342     Mn1872   2.194   1_545  S
N1343      C1345   1.353       .  A
C1345      C1516   1.474       .  S
C1346      C1379   1.450   1_655  S
N1347      N1348   1.316       .  A
N1347      N1353   1.314       .  A
N1347     Mn1355   2.192       .  S
N1348      C1358   1.354       .  A
N1349      N1350   1.317       .  A
N1349      N1351   1.313       .  A
N1349     Mn1356   2.185       .  S
N1350      C1359   1.353       .  A
N1351      N1352   1.318       .  A
N1351     Mn1355   2.191       .  S
N1352      C1359   1.352       .  A
N1353      N1354   1.321       .  A
N1353     Mn1356   2.197       .  S
N1354      C1358   1.354       .  A
Mn1355    Cl1357   2.539       .  S
Mn1356     N1858   2.194       .  S
Mn1356    Cl1357   2.545       .  S
C1358      C1528   1.484       .  S
C1359      C1456   1.480       .  S
N1360      N1361   1.321       .  A
N1360      N1366   1.314       .  A
N1360     Mn1389   2.199       .  S
N1361      C1368   1.355       .  A
N1362      N1364   1.315       .  A
N1362      N1363   1.321       .  A
N1362     Mn1378   2.202       .  S
N1363      C1369   1.353       .  A
N1364      N1365   1.318       .  A
N1364     Mn1389   2.189       .  S
N1365      C1369   1.350       .  A
N1366      N1367   1.317       .  A
N1366     Mn1378   2.189       .  S
N1367      C1368   1.351       .  A
C1368      C1501   1.476       .  S
C1369      C1405   1.464       .  S
N1370      N1371   1.318       .  A
N1370     Mn1400   2.186       .  S
N1371      C1379   1.350   1_655  A
N1372      N1373   1.319       .  A
N1372      N1374   1.314       .  A
N1372     Mn1894   2.198       .  S
N1373      C1380   1.353       .  A
N1374      N1375   1.318       .  A
N1375      C1380   1.351       .  A
N1376      N1377   1.317       .  A
N1376     Mn1378   2.183       .  S
Mn1378     N1888   2.198   1_545  S
C1380      C1429   1.474       .  S
N1381      N1382   1.318       .  A
N1381      N1387   1.315       .  A
N1382      C1390   1.351       .  A
N1383      N1384   1.320       .  A
N1383     Mn1401   2.200       .  S
N1384      C1391   1.352       .  A
N1385      N1386   1.318       .  A
N1385     Mn1389   2.184       .  S
N1387      N1388   1.319       .  A
N1387     Mn1917   2.195   1_545  S
N1388      C1390   1.352       .  A
C1390      C1480   1.470       .  S
N1392      N1393   1.315       .  A
N1392      N1398   1.314       .  A
N1392     Mn1400   2.181       .  S
N1393      C1403   1.351       .  A
N1394      N1395   1.320       .  A
N1394      N1396   1.315       .  A
N1394     Mn1401   2.202       .  S
N1395      C1404   1.353       .  A
N1396      N1397   1.319       .  A
N1396     Mn1400   2.192       .  S
N1397      C1404   1.351       .  A
N1398      N1399   1.321       .  A
N1398     Mn1401   2.203       .  S
N1399      C1403   1.355       .  A
Mn1400    Cl1402   2.535       .  S
Mn1401     N1903   2.195       .  S
Mn1401    Cl1402   2.547       .  S
C1403      C1492   1.483       .  S
C1404      C1417   1.474       .  S
C1405      C1406   1.402       .  A
C1405      C1410   1.409       .  A
C1406      C1407   1.403       .  A
C1406      H1415   1.084       .  S
C1407      C1408   1.415       .  A
C1407      S1411   1.802       .  S
C1408      C1409   1.404       .  A
C1409      C1410   1.392       .  A
C1409      H1416   1.084       .  S
C1410      S1412   1.806       .  S
S1411      H1414   1.406       .  S
S1412      H1413   1.406       .  S
C1417      C1418   1.401       .  A
C1417      C1422   1.413       .  A
C1418      C1419   1.399       .  A
C1418      H1427   1.084       .  S
C1419      C1420   1.420       .  A
C1419      S1423   1.801       .  S
C1420      C1421   1.406       .  A
C1421      C1422   1.396       .  A
C1421      H1428   1.084       .  S
C1422      S1424   1.803       .  S
S1423      H1426   1.408       .  S
S1424      H1425   1.407       .  S
C1429      C1430   1.404       .  A
C1429      C1434   1.411       .  A
C1430      C1431   1.399       .  A
C1430      H1439   1.084       .  S
C1431      C1432   1.417       .  A
C1431      S1435   1.803       .  S
C1432      C1433   1.405       .  A
C1433      C1434   1.393       .  A
C1433      H1440   1.084       .  S
C1434      S1436   1.803       .  S
S1435      H1438   1.408       .  S
S1436      H1437   1.407       .  S
C1441      C1442   1.402       .  A
C1441      C1446   1.411       .  A
C1442      C1443   1.397       .  A
C1442      H1451   1.084       .  S
C1443      C1444   1.416       .  A
C1443      S1447   1.801       .  S
C1444      C1445   1.404       .  A
C1445      C1446   1.394       .  A
C1445      H1452   1.084       .  S
C1446      S1448   1.804       .  S
S1447      H1450   1.408       .  S
S1448      H1449   1.407       .  S
C1453      C1454   1.397       .  A
C1453      C1458   1.408       .  A
C1454      C1455   1.396       .  A
C1454      H1463   1.084       .  S
C1455      C1456   1.418       .  A
C1455      S1459   1.800       .  S
C1456      C1457   1.407       .  A
C1457      C1458   1.398       .  A
C1457      H1464   1.082       .  S
C1458      S1460   1.809       .  S
S1459      H1462   1.408       .  S
S1460      H1461   1.407       .  S
C1465      C1466   1.404       .  A
C1465      C1470   1.414       .  A
C1466      C1467   1.397       .  A
C1466      H1475   1.084       .  S
C1467      C1468   1.419       .  A
C1467      S1471   1.802       .  S
C1468      C1469   1.407       .  A
C1469      C1470   1.392       .  A
C1469      H1476   1.083       .  S
C1470      S1472   1.802       .  S
S1471      H1474   1.408       .  S
S1472      H1473   1.408       .  S
C1477      C1478   1.405       .  A
C1477      C1482   1.415       .  A
C1478      C1479   1.396       .  A
C1478      H1487   1.084       .  S
C1479      C1480   1.412       .  A
C1479      S1483   1.804       .  S
C1480      C1481   1.402       .  A
C1481      C1482   1.397       .  A
C1481      H1488   1.084       .  S
C1482      S1484   1.804       .  S
S1483      H1486   1.407       .  S
S1484      H1485   1.407       .  S
C1489      C1490   1.401       .  A
C1489      C1494   1.410       .  A
C1490      C1491   1.399       .  A
C1490      H1499   1.084       .  S
C1491      C1492   1.417       .  A
C1491      S1495   1.799       .  S
C1492      C1493   1.407       .  A
C1493      C1494   1.394       .  A
C1493      H1500   1.084       .  S
C1494      S1496   1.805       .  S
S1495      H1498   1.408       .  S
S1496      H1497   1.407       .  S
C1501      C1502   1.404       .  A
C1501      C1506   1.414       .  A
C1502      C1503   1.399       .  A
C1502      H1511   1.084       .  S
C1503      C1504   1.414       .  A
C1503      S1507   1.804       .  S
C1504      C1505   1.404       .  A
C1505      C1506   1.396       .  A
C1505      H1512   1.084       .  S
C1506      S1508   1.805       .  S
S1507      H1510   1.407       .  S
S1508      H1509   1.407       .  S
C1513      C1514   1.406       .  A
C1513      C1518   1.417       .  A
C1514      C1515   1.400       .  A
C1515      C1516   1.412       .  A
C1515      S1519   1.803   1_556  S
C1516      C1517   1.400       .  A
C1517      C1518   1.394       .  A
C1517      H1524   1.084       .  S
C1518      S1520   1.798       .  S
S1519      H1522   1.407       .  S
S1520      H1521   1.406       .  S
C1525      C1530   1.408       .  A
C1526      H1535   1.084       .  S
C1527      C1528   1.419       .  A
C1528      C1529   1.405       .  A
C1529      C1530   1.391       .  A
C1529      H1536   1.083       .  S
C1530      S1532   1.804       .  S
S1532      H1533   1.405       .  S
C1537      C1538   1.405       .  A
C1537      C1542   1.415       .  A
C1538      C1539   1.398       .  A
C1539      C1540   1.412       .  A
C1539      S1543   1.803       .  S
C1540      C1541   1.404       .  A
C1541      C1542   1.398       .  A
C1541      H1548   1.084       .  S
C1542      S1544   1.804   1_556  S
S1543      H1546   1.407       .  S
S1544      H1545   1.407       .  S
C1549      N1550   1.358       .  A
C1549      N1554   1.360       .  A
C1549      C2029   1.484       .  S
N1550      C1551   1.356       .  A
C1551      N1552   1.354       .  A
C1551      C2041   1.464       .  S
N1552      C1553   1.357       .  A
C1553      N1554   1.360       .  A
C1553      C2053   1.480       .  S
C1555      N1556   1.357       .  A
C1555      N1560   1.357       .  A
C1555      C1735   1.477       .  S
N1556      C1557   1.357       .  A
C1557      N1558   1.357       .  A
C1557      C1762   1.475       .  S
N1558      C1559   1.356       .  A
C1559      N1560   1.356       .  A
C1559      C1747   1.468       .  S
C1561      N1562   1.357       .  A
C1561      N1566   1.358       .  A
C1561      C1726   1.488       .  S
N1562      C1563   1.357       .  A
C1563      N1564   1.355       .  A
C1563      C1699   1.468       .  S
N1564      C1565   1.353       .  A
C1565      N1566   1.352       .  A
C1565      C1711   1.462       .  S
C1567      N1568   1.359       .  A
C1567      N1572   1.358       .  A
C1567      C1690   1.481       .  S
N1568      C1569   1.358       .  A
C1569      N1570   1.357       .  A
C1569      C1666   1.475       .  S
N1570      C1571   1.356       .  A
C1571      N1572   1.352       .  A
C1571      C1678   1.487       .  S
N1573      N1574   1.319       .  A
N1573      N1579   1.315       .  A
N1573     Mn1602   2.194       .  S
N1574      C1581   1.352       .  A
N1575      N1577   1.315       .  A
N1575      N1576   1.320       .  A
N1575     Mn1591   2.194       .  S
N1576      C1582   1.353       .  A
N1577      N1578   1.316       .  A
N1577     Mn1602   2.189       .  S
N1578      C1582   1.351       .  A
N1579      N1580   1.320       .  A
N1579     Mn1591   2.202       .  S
N1580      C1581   1.354       .  A
C1581      C1798   1.476       .  S
C1582      C1702   1.476       .  S
N1583      N1584   1.318       .  A
N1583     Mn1613   2.185       .  S
N1584      C1592   1.349       .  A
N1585      N1586   1.316       .  A
N1585      N1587   1.313       .  A
N1586      C1593   1.351       .  A
N1587      N1588   1.318       .  A
N1588      C1593   1.354       .  A
N1589      N1590   1.319       .  A
N1589     Mn1591   2.201       .  S
C1592      C1649   1.455   1_565  S
C1593      C1723   1.479       .  S
N1594      N1595   1.318       .  A
N1594      N1600   1.315       .  A
N1595      C1603   1.352       .  A
N1596      N1855   1.317       .  A
N1596     Mn1614   2.180       .  S
N1597      C1604   1.348       .  A
N1597      N1854   1.317   1_554  A
N1598      N1857   1.318       .  A
N1598     Mn1602   2.190       .  S
N1599      N1856   1.318   1_554  A
N1600      N1601   1.320       .  A
N1601      C1603   1.353       .  A
C1603      C1774   1.474       .  S
C1604      C1637   1.450   1_655  S
N1605      N1606   1.316       .  A
N1605      N1611   1.314       .  A
N1605     Mn1613   2.192       .  S
N1606      C1616   1.354       .  A
N1607      N1608   1.317       .  A
N1607      N1609   1.313       .  A
N1607     Mn1614   2.185       .  S
N1608      C1617   1.353       .  A
N1609      N1610   1.318       .  A
N1609     Mn1613   2.191       .  S
N1610      C1617   1.352       .  A
N1611      N1612   1.321       .  A
N1611     Mn1614   2.197       .  S
N1612      C1616   1.354       .  A
Mn1613    Cl1615   2.539       .  S
Mn1614    Cl1615   2.545       .  S
C1616      C1786   1.484       .  S
C1617      C1714   1.480       .  S
N1618      N1619   1.321       .  A
N1618      N1624   1.314       .  A
N1618     Mn1647   2.199       .  S
N1619      C1626   1.355       .  A
N1620      N1622   1.315       .  A
N1620      N1621   1.321       .  A
N1620     Mn1636   2.202       .  S
N1621      C1627   1.353       .  A
N1622      N1623   1.318       .  A
N1622     Mn1647   2.189       .  S
N1623      C1627   1.350       .  A
N1624      N1625   1.317       .  A
N1624     Mn1636   2.189       .  S
N1625      C1626   1.351       .  A
C1626      C1759   1.476       .  S
C1627      C1663   1.464       .  S
N1628      N1629   1.318       .  A
N1628     Mn1658   2.186       .  S
N1629      C1637   1.350   1_655  A
N1630      N1631   1.319       .  A
N1630      N1632   1.314       .  A
N1631      C1638   1.353       .  A
N1632      N1633   1.318       .  A
N1633      C1638   1.351       .  A
N1634      N1635   1.317       .  A
N1634     Mn1636   2.183       .  S
C1638      C1687   1.474       .  S
N1639      N1640   1.318       .  A
N1639      N1645   1.315       .  A
N1640      C1648   1.351       .  A
N1641      N1642   1.320       .  A
N1641     Mn1659   2.200       .  S
N1642      C1649   1.352   1_565  A
N1643      N1644   1.318       .  A
N1643     Mn1647   2.184       .  S
N1645      N1646   1.319       .  A
N1646      C1648   1.352       .  A
C1648      C1738   1.470       .  S
N1650      N1651   1.315       .  A
N1650      N1656   1.314       .  A
N1650     Mn1658   2.181       .  S
N1651      C1661   1.351       .  A
N1652      N1653   1.320       .  A
N1652      N1654   1.315       .  A
N1652     Mn1659   2.202       .  S
N1653      C1662   1.353       .  A
N1654      N1655   1.319       .  A
N1654     Mn1658   2.192       .  S
N1655      C1662   1.351       .  A
N1656      N1657   1.321       .  A
N1656     Mn1659   2.203       .  S
N1657      C1661   1.355       .  A
Mn1658    Cl1660   2.535       .  S
Mn1659    Cl1660   2.547       .  S
C1661      C1750   1.483       .  S
C1662      C1675   1.474       .  S
C1663      C1664   1.402       .  A
C1663      C1668   1.409       .  A
C1664      C1665   1.403       .  A
C1664      H1673   1.084       .  S
C1665      C1666   1.415       .  A
C1665      S1669   1.802       .  S
C1666      C1667   1.404       .  A
C1667      C1668   1.392       .  A
C1667      H1674   1.084       .  S
C1668      S1670   1.806       .  S
S1669      H1672   1.406       .  S
S1670      H1671   1.406       .  S
C1675      C1676   1.401       .  A
C1675      C1680   1.413       .  A
C1676      C1677   1.399       .  A
C1676      H1685   1.084       .  S
C1677      C1678   1.420       .  A
C1677      S1681   1.801       .  S
C1678      C1679   1.406       .  A
C1679      C1680   1.396       .  A
C1679      H1686   1.084       .  S
C1680      S1682   1.803       .  S
S1681      H1684   1.408       .  S
S1682      H1683   1.407       .  S
C1687      C1688   1.404       .  A
C1687      C1692   1.411       .  A
C1688      C1689   1.399       .  A
C1688      H1697   1.084       .  S
C1689      C1690   1.417       .  A
C1689      S1693   1.803       .  S
C1690      C1691   1.405       .  A
C1691      C1692   1.393       .  A
C1691      H1698   1.084       .  S
C1692      S1694   1.803       .  S
S1693      H1696   1.408       .  S
S1694      H1695   1.407       .  S
C1699      C1700   1.402       .  A
C1699      C1704   1.411       .  A
C1700      C1701   1.397       .  A
C1700      H1709   1.084       .  S
C1701      C1702   1.416       .  A
C1701      S1705   1.801       .  S
C1702      C1703   1.404       .  A
C1703      C1704   1.394       .  A
C1703      H1710   1.084       .  S
C1704      S1706   1.804       .  S
S1705      H1708   1.408       .  S
S1706      H1707   1.407       .  S
C1711      C1712   1.397       .  A
C1711      C1716   1.408       .  A
C1712      C1713   1.396       .  A
C1712      H1721   1.084       .  S
C1713      C1714   1.418       .  A
C1713      S1717   1.800       .  S
C1714      C1715   1.407       .  A
C1715      C1716   1.398       .  A
C1715      H1722   1.082       .  S
C1716      S1718   1.809       .  S
S1717      H1720   1.408       .  S
S1718      H1719   1.407       .  S
C1723      C1724   1.404       .  A
C1723      C1728   1.414       .  A
C1724      C1725   1.397       .  A
C1724      H1733   1.084       .  S
C1725      C1726   1.419       .  A
C1725      S1729   1.802       .  S
C1726      C1727   1.407       .  A
C1727      C1728   1.392       .  A
C1727      H1734   1.083       .  S
C1728      S1730   1.802       .  S
S1729      H1732   1.408       .  S
S1730      H1731   1.408       .  S
C1735      C1736   1.405       .  A
C1735      C1740   1.415       .  A
C1736      C1737   1.396       .  A
C1736      H1745   1.084       .  S
C1737      C1738   1.412       .  A
C1737      S1741   1.804       .  S
C1738      C1739   1.402       .  A
C1739      C1740   1.397       .  A
C1739      H1746   1.084       .  S
C1740      S1742   1.804       .  S
S1741      H1744   1.407       .  S
S1742      H1743   1.407       .  S
C1747      C1748   1.401       .  A
C1747      C1752   1.410       .  A
C1748      C1749   1.399       .  A
C1748      H1757   1.084       .  S
C1749      C1750   1.417       .  A
C1749      S1753   1.799       .  S
C1750      C1751   1.407       .  A
C1751      C1752   1.394       .  A
C1751      H1758   1.084       .  S
C1752      S1754   1.805       .  S
S1753      H1756   1.408       .  S
S1754      H1755   1.407       .  S
C1759      C1760   1.404       .  A
C1759      C1764   1.414       .  A
C1760      C1761   1.399       .  A
C1760      H1769   1.084       .  S
C1761      C1762   1.414       .  A
C1761      S1765   1.804       .  S
C1762      C1763   1.404       .  A
C1763      C1764   1.396       .  A
C1763      H1770   1.084       .  S
C1764      S1766   1.805       .  S
S1765      H1768   1.407       .  S
S1766      H1767   1.407       .  S
C1771      C1807   1.484       .  S
C1771      C1772   1.406       .  A
C1771      C1776   1.417       .  A
C1772      C1773   1.400       .  A
C1772      H2039   1.084       .  S
C1773      C1774   1.412       .  A
C1773      S1777   1.803       .  S
C1774      C1775   1.400       .  A
C1775      C1776   1.394       .  A
C1775      H1782   1.084       .  S
C1776      S1778   1.798       .  S
S1777      H1780   1.407       .  S
S1778      H1779   1.406       .  S
H1781      C2030   1.084   1_554  S
C1783      C1809   1.464       .  S
C1783      C2042   1.401       .  A
C1783      C1788   1.408       .  A
C1784      C2041   1.401       .  A
C1784      C2043   1.403       .  A
C1784      H1793   1.084   1_556  S
C1785      C2042   1.403       .  A
C1785      C1786   1.419       .  A
C1785      S2047   1.802       .  S
C1786      C1787   1.405       .  A
C1787      C1788   1.391       .  A
C1787      H1794   1.083       .  S
C1788      S1790   1.804       .  S
S1789      C2043   1.802   1_554  S
S1789      H2050   1.407       .  S
S1790      H1791   1.405       .  S
H1792      S2047   1.407       .  S
C1795      C1811   1.480       .  S
C1795      C1796   1.405       .  A
C1795      C1800   1.415       .  A
C1796      C1797   1.398       .  A
C1796      H2063   1.084       .  S
C1797      C1798   1.412       .  A
C1797      S1801   1.803       .  S
C1798      C1799   1.404       .  A
C1799      C1800   1.398       .  A
C1799      H1806   1.084       .  S
C1800      S1802   1.804       .  S
S1801      H1804   1.407       .  S
S1802      H1803   1.407       .  S
H1805      C2054   1.084       .  S
C1807      N1808   1.358       .  A
C1807      N1812   1.360       .  A
N1808      C1809   1.356       .  A
C1809      N1810   1.354       .  A
N1810      C1811   1.357       .  A
C1811      N1812   1.360       .  A
C1813      N1814   1.357       .  A
C1813      N1818   1.357       .  A
C1813      C1993   1.477       .  S
N1814      C1815   1.357       .  A
C1815      N1816   1.357       .  A
C1815      C2020   1.475       .  S
N1816      C1817   1.356       .  A
C1817      N1818   1.356       .  A
C1817      C2005   1.468       .  S
C1819      N1820   1.357       .  A
C1819      N1824   1.358       .  A
C1819      C1984   1.488       .  S
N1820      C1821   1.357       .  A
C1821      N1822   1.355       .  A
C1821      C1957   1.468       .  S
N1822      C1823   1.353       .  A
C1823      N1824   1.352       .  A
C1823      C1969   1.462       .  S
C1825      N1826   1.359       .  A
C1825      N1830   1.358       .  A
C1825      C1948   1.481       .  S
N1826      C1827   1.358       .  A
C1827      N1828   1.357       .  A
C1827      C1924   1.475       .  S
N1828      C1829   1.356       .  A
C1829      N1830   1.352       .  A
C1829      C1936   1.487       .  S
N1831      N1832   1.319       .  A
N1831      N1837   1.315       .  A
N1831     Mn1860   2.194       .  S
N1832      C1839   1.352       .  A
N1833      N1835   1.315       .  A
N1833      N1834   1.320       .  A
N1833     Mn1849   2.194       .  S
N1834      C1840   1.353       .  A
N1835      N1836   1.316       .  A
N1835     Mn1860   2.189       .  S
N1836      C1840   1.351       .  A
N1837      N1838   1.320       .  A
N1837     Mn1849   2.202       .  S
N1838      C1839   1.354       .  A
C1839      C2056   1.476       .  S
C1840      C1960   1.476       .  S
N1841      N1842   1.318       .  A
N1841     Mn1871   2.185       .  S
N1842      C1850   1.349       .  A
N1843      N1844   1.316       .  A
N1843      N1845   1.313       .  A
N1844      C1851   1.351       .  A
N1845      N1846   1.318       .  A
N1846      C1851   1.354       .  A
N1847      N1848   1.319       .  A
N1847     Mn1849   2.201       .  S
C1850      C1907   1.455   1_565  S
C1851      C1981   1.479       .  S
N1852      N1853   1.318       .  A
N1852      N1858   1.315       .  A
N1853      C1861   1.352       .  A
N1854     Mn1872   2.180       .  S
N1855      C1862   1.348       .  A
N1856     Mn1860   2.190       .  S
N1858      N1859   1.320       .  A
N1859      C1861   1.353       .  A
C1861      C2032   1.474       .  S
C1862      C1895   1.450   1_655  S
N1863      N1864   1.316       .  A
N1863      N1869   1.314       .  A
N1863     Mn1871   2.192       .  S
N1864      C1874   1.354       .  A
N1865      N1866   1.317       .  A
N1865      N1867   1.313       .  A
N1865     Mn1872   2.185       .  S
N1866      C1875   1.353       .  A
N1867      N1868   1.318       .  A
N1867     Mn1871   2.191       .  S
N1868      C1875   1.352       .  A
N1869      N1870   1.321       .  A
N1869     Mn1872   2.197       .  S
N1870      C1874   1.354       .  A
Mn1871    Cl1873   2.539       .  S
Mn1872    Cl1873   2.545       .  S
C1874      C2044   1.484       .  S
C1875      C1972   1.480       .  S
N1876      N1877   1.321       .  A
N1876      N1882   1.314       .  A
N1876     Mn1905   2.199       .  S
N1877      C1884   1.355       .  A
N1878      N1880   1.315       .  A
N1878      N1879   1.321       .  A
N1878     Mn1894   2.202       .  S
N1879      C1885   1.353       .  A
N1880      N1881   1.318       .  A
N1880     Mn1905   2.189       .  S
N1881      C1885   1.350       .  A
N1882      N1883   1.317       .  A
N1882     Mn1894   2.189       .  S
N1883      C1884   1.351       .  A
C1884      C2017   1.476       .  S
C1885      C1921   1.464       .  S
N1886      N1887   1.318       .  A
N1886     Mn1916   2.186       .  S
N1887      C1895   1.350   1_655  A
N1888      N1889   1.319       .  A
N1888      N1890   1.314       .  A
N1889      C1896   1.353       .  A
N1890      N1891   1.318       .  A
N1891      C1896   1.351       .  A
N1892      N1893   1.317       .  A
N1892     Mn1894   2.183       .  S
C1896      C1945   1.474       .  S
N1897      N1898   1.318       .  A
N1897      N1903   1.315       .  A
N1898      C1906   1.351       .  A
N1899      N1900   1.320       .  A
N1899     Mn1917   2.200       .  S
N1900      C1907   1.352   1_565  A
N1901      N1902   1.318       .  A
N1901     Mn1905   2.184       .  S
N1903      N1904   1.319       .  A
N1904      C1906   1.352       .  A
C1906      C1996   1.470       .  S
N1908      N1909   1.315       .  A
N1908      N1914   1.314       .  A
N1908     Mn1916   2.181       .  S
N1909      C1919   1.351       .  A
N1910      N1911   1.320       .  A
N1910      N1912   1.315       .  A
N1910     Mn1917   2.202       .  S
N1911      C1920   1.353       .  A
N1912      N1913   1.319       .  A
N1912     Mn1916   2.192       .  S
N1913      C1920   1.351       .  A
N1914      N1915   1.321       .  A
N1914     Mn1917   2.203       .  S
N1915      C1919   1.355       .  A
Mn1916    Cl1918   2.535       .  S
Mn1917    Cl1918   2.547       .  S
C1919      C2008   1.483       .  S
C1920      C1933   1.474       .  S
C1921      C1922   1.402       .  A
C1921      C1926   1.409       .  A
C1922      C1923   1.403       .  A
C1922      H1931   1.084       .  S
C1923      C1924   1.415       .  A
C1923      S1927   1.802       .  S
C1924      C1925   1.404       .  A
C1925      C1926   1.392       .  A
C1925      H1932   1.084       .  S
C1926      S1928   1.806       .  S
S1927      H1930   1.406       .  S
S1928      H1929   1.406       .  S
C1933      C1934   1.401       .  A
C1933      C1938   1.413       .  A
C1934      C1935   1.399       .  A
C1934      H1943   1.084       .  S
C1935      C1936   1.420       .  A
C1935      S1939   1.801       .  S
C1936      C1937   1.406       .  A
C1937      C1938   1.396       .  A
C1937      H1944   1.084       .  S
C1938      S1940   1.803       .  S
S1939      H1942   1.408       .  S
S1940      H1941   1.407       .  S
C1945      C1946   1.404       .  A
C1945      C1950   1.411       .  A
C1946      C1947   1.399       .  A
C1946      H1955   1.084       .  S
C1947      C1948   1.417       .  A
C1947      S1951   1.803       .  S
C1948      C1949   1.405       .  A
C1949      C1950   1.393       .  A
C1949      H1956   1.084       .  S
C1950      S1952   1.803       .  S
S1951      H1954   1.408       .  S
S1952      H1953   1.407       .  S
C1957      C1958   1.402       .  A
C1957      C1962   1.411       .  A
C1958      C1959   1.397       .  A
C1958      H1967   1.084       .  S
C1959      C1960   1.416       .  A
C1959      S1963   1.801       .  S
C1960      C1961   1.404       .  A
C1961      C1962   1.394       .  A
C1961      H1968   1.084       .  S
C1962      S1964   1.804       .  S
S1963      H1966   1.408       .  S
S1964      H1965   1.407       .  S
C1969      C1970   1.397       .  A
C1969      C1974   1.408       .  A
C1970      C1971   1.396       .  A
C1970      H1979   1.084       .  S
C1971      C1972   1.418       .  A
C1971      S1975   1.800       .  S
C1972      C1973   1.407       .  A
C1973      C1974   1.398       .  A
C1973      H1980   1.082       .  S
C1974      S1976   1.809       .  S
S1975      H1978   1.408       .  S
S1976      H1977   1.407       .  S
C1981      C1982   1.404       .  A
C1981      C1986   1.414       .  A
C1982      C1983   1.397       .  A
C1982      H1991   1.084       .  S
C1983      C1984   1.419       .  A
C1983      S1987   1.802       .  S
C1984      C1985   1.407       .  A
C1985      C1986   1.392       .  A
C1985      H1992   1.083       .  S
C1986      S1988   1.802       .  S
S1987      H1990   1.408       .  S
S1988      H1989   1.408       .  S
C1993      C1994   1.405       .  A
C1993      C1998   1.415       .  A
C1994      C1995   1.396       .  A
C1994      H2003   1.084       .  S
C1995      C1996   1.412       .  A
C1995      S1999   1.804       .  S
C1996      C1997   1.402       .  A
C1997      C1998   1.397       .  A
C1997      H2004   1.084       .  S
C1998      S2000   1.804       .  S
S1999      H2002   1.407       .  S
S2000      H2001   1.407       .  S
C2005      C2006   1.401       .  A
C2005      C2010   1.410       .  A
C2006      C2007   1.399       .  A
C2006      H2015   1.084       .  S
C2007      C2008   1.417       .  A
C2007      S2011   1.799       .  S
C2008      C2009   1.407       .  A
C2009      C2010   1.394       .  A
C2009      H2016   1.084       .  S
C2010      S2012   1.805       .  S
S2011      H2014   1.408       .  S
S2012      H2013   1.407       .  S
C2017      C2018   1.404       .  A
C2017      C2022   1.414       .  A
C2018      C2019   1.399       .  A
C2018      H2027   1.084       .  S
C2019      C2020   1.414       .  A
C2019      S2023   1.804       .  S
C2020      C2021   1.404       .  A
C2021      C2022   1.396       .  A
C2021      H2028   1.084       .  S
C2022      S2024   1.805       .  S
S2023      H2026   1.407       .  S
S2024      H2025   1.407       .  S
C2029      C2030   1.406       .  A
C2029      C2034   1.417       .  A
C2030      C2031   1.400       .  A
C2031      C2032   1.412       .  A
C2031      S2035   1.803   1_556  S
C2032      C2033   1.400       .  A
C2033      C2034   1.394       .  A
C2033      H2040   1.084       .  S
C2034      S2036   1.798       .  S
S2035      H2038   1.407       .  S
S2036      H2037   1.406       .  S
C2041      C2046   1.408       .  A
C2042      H2051   1.084       .  S
C2043      C2044   1.419       .  A
C2044      C2045   1.405       .  A
C2045      C2046   1.391       .  A
C2045      H2052   1.083       .  S
C2046      S2048   1.804       .  S
S2048      H2049   1.405       .  S
C2053      C2054   1.405       .  A
C2053      C2058   1.415       .  A
C2054      C2055   1.398       .  A
C2055      C2056   1.412       .  A
C2055      S2059   1.803       .  S
C2056      C2057   1.404       .  A
C2057      C2058   1.398       .  A
C2057      H2064   1.084       .  S
C2058      S2060   1.804   1_556  S
S2059      H2062   1.407       .  S
S2060      H2061   1.407       .  S
