geometry optimzed in LAMMPS
_audit_creation_date              2020-12-01 
_audit_creation_method            'lammps2cif' 
_symmetry_space_group_name_H-M    'P1' 
_symmetry_Int_Tables_number       1 
_symmetry_cell_setting            triclinic 
loop_ 
_symmetry_equiv_pos_as_xyz 
  x,y,z 
_cell_length_a                    24.86211085 
_cell_length_b                    49.50175815854305 
_cell_length_c                    24.979984214535953 
_cell_angle_alpha                 89.99310058072051 
_cell_angle_beta                  89.96850856206693 
_cell_angle_gamma                 90.01022680613411 
loop_ 
_atom_site_label 
_atom_site_type_symbol 
_atom_site_fract_x 
_atom_site_fract_y 
_atom_site_fract_z 
_atom_site_charge 
O1          O  0.39956175  0.19713885  0.89890911    -0.73100
O2          O  0.44758818  0.22120549  0.83710910    -0.52000
C3          C  0.41230254  0.20352561  0.85059642     0.80600
O4          O  0.40169027  0.30479472  0.07957296    -0.57700
O5          O  0.44968452  0.28054935  0.14103845    -0.50700
C6          C  0.41469655  0.29841052  0.12776550     0.72600
O7          O  0.39898327  0.30403049  0.89922969    -0.72300
O8          O  0.44764744  0.28045184  0.83722529    -0.52800
C9          C  0.41202648  0.29792762  0.85087488     0.78600
O10         O  0.40222235  0.19641685  0.07972969    -0.57400
O11         O  0.44981783  0.22094057  0.14110463    -0.50500
C12         C  0.41507395  0.20295780  0.12791126     0.75200
Zr13       Zr  0.42726780  0.21025164  0.98916648     2.54700
O14         O  0.32938954  0.21183614  0.99038325    -0.78000
O15         O  0.42926843  0.16105310  0.98943380    -0.91400
Zr16       Zr  0.42651664  0.29064273  0.98925849     2.64700
O17         O  0.32878170  0.28733231  0.98895371    -0.96300
O18         O  0.42516703  0.33982774  0.98947686    -0.78400
O19         O  0.42553915  0.25047997  0.93745030    -0.81800
O20         O  0.42601501  0.25044320  0.04092830    -2.16500
O21         O  0.61442624  0.19733074  0.07864934    -0.65100
O22         O  0.56686748  0.22139928  0.14076658    -0.49700
C23         C  0.60216435  0.20378329  0.12706605     0.73600
O24         O  0.61600816  0.30300327  0.89802540    -0.58100
O25         O  0.56598191  0.27988213  0.83645123    -0.50000
C26         C  0.60271566  0.29682350  0.84975583     0.75400
O27         O  0.61394441  0.30442571  0.07904038    -0.69400
O28         O  0.56686631  0.27999128  0.14096137    -0.48100
C29         C  0.60192452  0.29777201  0.12742769     0.76800
O30         O  0.61524334  0.19827164  0.89732409    -0.64800
O31         O  0.56619985  0.22201183  0.83591727    -0.52000
C32         C  0.60233317  0.20472511  0.84908655     0.75200
Zr33       Zr  0.58745605  0.21055855  0.98811613     2.77500
O34         O  0.68539105  0.21073325  0.98665825    -0.95500
O35         O  0.58361731  0.16142599  0.98717727    -0.76300
Zr36       Zr  0.58677754  0.29116789  0.98853745     2.70100
O37         O  0.68464041  0.29192474  0.99007481    -0.77600
O38         O  0.57974908  0.34019310  0.98560263    -0.96700
Zr39       Zr  0.50661948  0.25077190  0.88695045     2.21500
Zr40       Zr  0.50775154  0.25070795  0.09058705     2.11100
O41         O  0.58873717  0.25081598  0.03961619    -2.45400
O42         O  0.58802403  0.25092260  0.93687086    -0.77400
O43         O  0.50769459  0.20984753  0.04038693    -0.69600
O44         O  0.50648614  0.29159417  0.93735522    -2.30500
O45         O  0.50711697  0.20980433  0.93702179    -2.26700
O46         O  0.50692302  0.29158386  0.04060757    -0.71300
H47         H  0.39518901  0.25035765  0.06447784     0.80700
H48         H  0.50643336  0.30718868  0.91411304     0.81700
H49         H  0.61996260  0.25087576  0.06258206     0.84000
H50         H  0.50723350  0.19425686  0.91366170     0.81600
H51         H  0.45368182  0.34514877  0.96388214     0.44600
H52         H  0.55322987  0.34471296  0.01379839     0.43600
H53         H  0.69530308  0.27349109  0.97894120     0.43300
H54         H  0.69598346  0.22237088  0.01710767     0.41200
H55         H  0.55032454  0.15696212  0.00706482     0.44300
H56         H  0.45169575  0.15609463  0.95818206     0.39100
H57         H  0.32003996  0.22674579  0.96565304     0.45200
H58         H  0.31974159  0.27675955  0.02137570     0.41600
H59         H  0.69573339  0.19225514  0.99780892     0.46600
H60         H  0.39234304  0.15560280  0.97925205     0.45300
H61         H  0.31623311  0.30586943  0.99703787     0.44700
H62         H  0.61454386  0.34673552  0.99985321     0.45800
O63         O  0.41010014  0.45539602  0.38224638    -0.73100
O64         O  0.45834052  0.42411046  0.42935575    -0.52000
C65         C  0.42295305  0.43099611  0.39450123     0.80600
O66         O  0.62283574  0.04704666  0.38322730    -0.57700
O67         O  0.57445654  0.07806325  0.43093475    -0.50700
C68         C  0.60971322  0.07138568  0.39578460     0.72600
O69         O  0.62176117  0.45559531  0.38054117    -0.72300
O70         O  0.57529959  0.42425083  0.42936107    -0.52800
C71         C  0.60957198  0.43116024  0.39341153     0.78600
O72         O  0.40892612  0.04637653  0.38347369    -0.57400
O73         O  0.45622969  0.07755619  0.43180989    -0.50500
C74         C  0.42115832  0.07073520  0.39659475     0.75200
Zr75       Zr  0.43621963  0.00091763  0.40967027     2.54700
O76         O  0.43813719  0.00129945  0.31227783    -0.78000
O77         O  0.33830075  0.00130071  0.41261395    -0.91400
Zr78       Zr  0.59647433  0.00118983  0.40888690     2.64700
O79         O  0.59571603  0.00158643  0.31138507    -0.96300
O80         O  0.69435007  0.00091446  0.41183668    -0.78400
O81         O  0.51645962  0.47496773  0.40779271    -0.81800
O82         O  0.51615243  0.02706394  0.40825009    -2.16500
O83         O  0.40891856  0.04619636  0.59484744    -0.65100
O84         O  0.45734388  0.07755655  0.54802524    -0.49700
C85         C  0.42168443  0.07062757  0.58258357     0.73600
O86         O  0.62108282  0.45516102  0.59705647    -0.58100
O87         O  0.57474544  0.42401118  0.54769412    -0.50000
C88         C  0.60870898  0.43077880  0.58400356     0.75400
O89         O  0.62356755  0.04640906  0.59522128    -0.69400
O90         O  0.57500293  0.07761065  0.54819994    -0.48100
C91         C  0.61041518  0.07079987  0.58308256     0.76800
O92         O  0.41058750  0.45497469  0.59560688    -0.64800
O93         O  0.45807042  0.42389349  0.54714211    -0.52000
C94         C  0.42309659  0.43062058  0.58258727     0.75200
Zr95       Zr  0.43681426  0.00062307  0.56903078     2.77500
O96         O  0.44048222  0.00025164  0.66646027    -0.95500
O97         O  0.33893881  0.00013824  0.56701993    -0.76300
Zr98       Zr  0.59714272  0.00082072  0.56807260     2.70100
O99         O  0.59992137  0.00217949  0.66543480    -0.77600
O100        O  0.69469755  0.99979498  0.56003252    -0.96700
Zr101      Zr  0.51674754  0.44939540  0.48848378     2.21500
Zr102      Zr  0.51625623  0.05235349  0.48941064     2.11100
O103        O  0.51681665  0.02667253  0.57001845    -2.45400
O104        O  0.51706681  0.47464702  0.56952654    -0.77400
O105        O  0.43514047  0.02688824  0.48955439    -0.69600
O106        O  0.59809188  0.47488044  0.48828786    -2.30500
O107        O  0.43533898  0.47473389  0.48914893    -2.26700
O108        O  0.59781484  0.02721512  0.48874527    -0.71300
H109        H  0.51589233  0.03883342  0.37740804     0.80700
H110        H  0.62918727  0.46318127  0.48814477     0.81700
H111        H  0.51688185  0.03830895  0.60103990     0.84000
H112        H  0.40431402  0.46298806  0.48919748     0.81600
H113        H  0.70387707  0.51620685  0.43553787     0.44600
H114        H  0.70401747  0.01685934  0.54153796     0.43600
H115        H  0.56278759  0.49766074  0.67665716     0.43300
H116        H  0.46047508  0.01683612  0.67619223     0.41200
H117        H  0.32950878  0.00957712  0.53336039     0.44300
H118        H  0.32832966  0.48472928  0.43246611     0.39100
H119        H  0.47445625  0.49459611  0.30295804     0.45200
H120        H  0.57717703  0.01856940  0.30150295     0.41600
H121        H  0.40303243  0.00386182  0.67790338     0.46600
H122        H  0.32711581  0.99768198  0.37525868     0.45300
H123        H  0.63373217  0.00461026  0.30116306     0.45400
H124        H  0.70787889  0.00231865  0.59708982     0.45800
O125        O  0.92156917  0.30336924  0.37990802    -0.73100
O126        O  0.85955887  0.27991321  0.42893290    -0.52000
C127        C  0.87304935  0.29701032  0.39269153     0.80600
O128        O  0.10357454  0.19677001  0.38405435    -0.57700
O129        O  0.16565146  0.22154025  0.43033138    -0.50700
C130        C  0.15209296  0.20340044  0.39621054     0.72600
O131        O  0.92174297  0.19876227  0.37926262    -0.72300
O132        O  0.85963160  0.22195417  0.42864659    -0.52800
C133        C  0.87318176  0.20501922  0.39213131     0.78600
O134        O  0.10296129  0.30541992  0.38368959    -0.57400
O135        O  0.16521985  0.28104173  0.43051231    -0.50500
C136        C  0.15152542  0.29903344  0.39609004     0.75200
Zr137      Zr  0.01232484  0.29136019  0.40902106     2.54700
O138        O  0.01509476  0.29138472  0.31165204    -0.78000
O139        O  0.01086133  0.34052188  0.41227903    -0.91400
Zr140      Zr  0.01252910  0.21080326  0.40843480     2.64700
O141        O  0.01460334  0.21202467  0.31100493    -0.96300
O142        O  0.01041047  0.16161031  0.40960180    -0.78400
O143        O  0.96069931  0.25104232  0.40747554    -0.81800
O144        O  0.06419440  0.25112150  0.40738514    -2.16500
O145        O  0.10310068  0.30517147  0.59326585    -0.65100
O146        O  0.16537551  0.28059817  0.54678799    -0.49700
C147        C  0.15168419  0.29865453  0.58107796     0.73600
O148        O  0.92202143  0.19874528  0.59754232    -0.58100
O149        O  0.85995276  0.22193804  0.54811990    -0.50000
C150        C  0.87349756  0.20501066  0.58463212     0.75400
O151        O  0.10331353  0.19662768  0.59306142    -0.69400
O152        O  0.16529277  0.22102166  0.54579188    -0.48100
C153        C  0.15180367  0.20305657  0.58035484     0.76800
O154        O  0.92123816  0.30325281  0.59666676    -0.64800
O155        O  0.85927826  0.27980436  0.54759347    -0.52000
C156        C  0.87271440  0.29692002  0.58379934     0.75200
Zr157      Zr  0.01225446  0.29109143  0.56828645     2.77500
O158        O  0.01307186  0.28985809  0.66573752    -0.95500
O159        O  0.01051022  0.34024602  0.56605177    -0.76300
Zr160      Zr  0.01259918  0.21055239  0.56762795     2.70100
O161        O  0.01611036  0.21009486  0.66499518    -0.77600
O162        O  0.00920248  0.16151285  0.56121710    -0.96700
Zr163      Zr  0.91012226  0.25089030  0.48828331     2.21500
Zr164      Zr  0.11484001  0.25107587  0.48833686     2.11100
O165        O  0.06418880  0.25087948  0.56926158    -2.45400
O166        O  0.96072287  0.25077153  0.56901298    -0.77400
O167        O  0.06433120  0.29188537  0.48863990    -0.69600
O168        O  0.96047307  0.20996283  0.48811360    -2.30500
O169        O  0.96028346  0.29189542  0.48865703    -2.26700
O170        O  0.06464287  0.21015227  0.48802593    -0.71300
H171        H  0.08757582  0.25120443  0.37649818     0.80700
H172        H  0.93693462  0.19443012  0.48815757     0.81700
H173        H  0.08757095  0.25081015  0.60011134     0.84000
H174        H  0.93673178  0.30741231  0.48878208     0.81600
H175        H  0.98699710  0.15690285  0.44028211     0.44600
H176        H  0.03967129  0.15670644  0.53751666     0.43600
H177        H  0.00111978  0.22781124  0.67575316     0.43300
H178        H  0.04542977  0.27922315  0.67516883     0.41200
H179        H  0.02839008  0.34502638  0.53191355     0.44300
H180        H  0.97803516  0.34510574  0.43280278     0.39100
H181        H  0.00473344  0.27277519  0.30144785     0.45200
H182        H  0.05004372  0.21987089  0.30175512     0.41600
H183        H  0.02193212  0.30857698  0.67657019     0.46600
H184        H  0.00264550  0.34610662  0.37510688     0.45300
H185        H  0.01732154  0.19283131  0.30017573     0.45400
H186        H  0.02022346  0.15507260  0.59709708     0.45800
C187        C  0.74674155  0.16868754  0.31780458     0.82400
N188        N  0.72355806  0.17952675  0.27354970    -0.75900
C189        C  0.67899679  0.16789933  0.25219783     0.84900
N190        N  0.65741607  0.14558584  0.27536091    -0.75800
C191        C  0.68061039  0.13477903  0.31961170     0.85000
N192        N  0.72511100  0.14639769  0.34092367    -0.77600
C193        C  0.74663881  0.33327143  0.31823862     0.82400
N194        N  0.72536460  0.35585195  0.34057908    -0.75900
C195        C  0.68099321  0.36742566  0.31887940     0.84900
N196        N  0.65761869  0.35628770  0.27505385    -0.75800
C197        C  0.67883028  0.33369737  0.25266005     0.85000
N198        N  0.72325658  0.32211434  0.27438423    -0.77600
C199        C  0.67864010  0.16853116  0.72379395     0.82400
N200        N  0.72315535  0.18005708  0.70214699    -0.75900
C201        C  0.74673650  0.16881651  0.65850623     0.84900
N202        N  0.72557460  0.14619689  0.63624721    -0.75800
C203        C  0.68110637  0.13465389  0.65786906     0.85000
N204        N  0.65751349  0.14587423  0.70154466    -0.77600
C205        C  0.34544598  0.36878698  0.32104637     0.82400
N206        N  0.30077581  0.35801042  0.34383844    -0.75900
C207        C  0.27670404  0.33619950  0.32129392     0.84900
N208        N  0.29759629  0.32501401  0.27626391    -0.75800
C209        C  0.34227341  0.33580445  0.25352317     0.85000
N210        N  0.36632434  0.35760140  0.27605586    -0.77600
C211        C  0.34137848  0.33568766  0.72454321     0.82400
N212        N  0.36587170  0.35736018  0.70186319    -0.75900
C213        C  0.34560672  0.36836285  0.65638068     0.84900
N214        N  0.30114694  0.35752946  0.63332333    -0.75800
C215        C  0.27669445  0.33585231  0.65600494     0.85000
N216        N  0.29695775  0.32486369  0.70146532    -0.77600
C217        C  0.34201360  0.16629075  0.72343908     0.82400
N218        N  0.36600270  0.14439324  0.70110276    -0.75900
C219        C  0.34552390  0.13336398  0.65574321     0.84900
N220        N  0.30136110  0.14436183  0.63249377    -0.75800
C221        C  0.27741316  0.16625010  0.65482461     0.85000
N222        N  0.29785339  0.17728149  0.70016999    -0.77600
C223        C  0.67864070  0.33302031  0.72428964     0.82400
N224        N  0.65695525  0.35560961  0.70233466    -0.75900
C225        C  0.68002485  0.36701585  0.65857846     0.84900
N226        N  0.72453964  0.35571068  0.63654590    -0.75800
C227        C  0.74623577  0.33312528  0.65845703     0.85000
N228        N  0.72316309  0.32171039  0.70221423    -0.77600
C229        C  0.34568399  0.13332860  0.32263884     0.82400
N230        N  0.30123595  0.14441279  0.34519451    -0.75900
C231        C  0.27779537  0.16631694  0.32242582     0.84900
N232        N  0.29903748  0.17727525  0.27734901    -0.75800
C233        C  0.34349099  0.16617380  0.25480489     0.85000
N234        N  0.36696549  0.14427283  0.27757354    -0.77600
C235        C  0.19455599  0.18922338  0.60726369    -0.11100
C236        C  0.23176401  0.17836528  0.62936574    -0.12600
C237        C  0.23117083  0.32363988  0.63041848    -0.11100
C238        C  0.19424448  0.31258040  0.60818655    -0.12600
C239        C  0.23101409  0.32403464  0.34672157    -0.11100
C240        C  0.19405671  0.31300192  0.36899059    -0.12600
C241        C  0.19478323  0.18954103  0.36925440    -0.11100
C242        C  0.23200102  0.17859287  0.34732810    -0.12600
C243        C  0.79231139  0.32075893  0.63404458    -0.11100
C244        C  0.82981894  0.31009586  0.61194112    -0.12600
C245        C  0.79298219  0.18129866  0.63475379    -0.11100
C246        C  0.83066326  0.19194077  0.61295965    -0.12600
C247        C  0.83037321  0.19197444  0.36363761    -0.11100
C248        C  0.79285869  0.18132463  0.34154603    -0.12600
C249        C  0.79270215  0.32072513  0.34225529    -0.11100
C250        C  0.83021802  0.31009850  0.36436440    -0.12600
C251        C  0.65780808  0.11124658  0.63316943    -0.11100
C252        C  0.63707860  0.09230369  0.61095166    -0.12600
C253        C  0.39394783  0.09201436  0.60969669    -0.11100
C254        C  0.37153205  0.11062603  0.63134686    -0.12600
C255        C  0.39357813  0.09214034  0.36953200    -0.11100
C256        C  0.37129356  0.11066825  0.34756602    -0.12600
C257        C  0.63614849  0.09295067  0.36791405    -0.11100
C258        C  0.65691206  0.11172777  0.34519131    -0.12600
C259        C  0.37243229  0.39074860  0.63145688    -0.11100
C260        C  0.39544980  0.40913947  0.60961278    -0.12600
C261        C  0.65604562  0.39033160  0.63417495    -0.11100
C262        C  0.63500296  0.40923270  0.61210368    -0.12600
C263        C  0.65750310  0.39078615  0.34357400    -0.11100
C264        C  0.63642201  0.40970723  0.36554514    -0.12600
C265        C  0.39512564  0.40964478  0.36740709    -0.11100
C266        C  0.37199580  0.39125808  0.34577628    -0.12600
C267        C  0.63045080  0.19039797  0.16948071    -0.11100
C268        C  0.65330403  0.17985132  0.20654381    -0.12600
C269        C  0.63022385  0.31107808  0.17000651    -0.11100
C270        C  0.65310418  0.32157679  0.20714471    -0.12600
C271        C  0.38769629  0.31222531  0.17038886    -0.11100
C272        C  0.36598398  0.32325823  0.20752903    -0.12600
C273        C  0.36711639  0.17832654  0.20835560    -0.11100
C274        C  0.38833503  0.18917552  0.17072462    -0.12600
C275        C  0.65343653  0.32061826  0.76977549    -0.11100
C276        C  0.63102837  0.30995310  0.80700509    -0.12600
C277        C  0.65290776  0.18079757  0.76913653    -0.11100
C278        C  0.63039685  0.19150081  0.80626624    -0.12600
C279        C  0.36477250  0.17859419  0.77020843    -0.11100
C280        C  0.38539154  0.18965520  0.80794878    -0.12600
C281        C  0.38505742  0.31193547  0.80844976    -0.11100
C282        C  0.36425946  0.32321039  0.77106237    -0.12600
O283        O  0.39956460  0.69714024  0.89890734    -0.73100
O284        O  0.44759062  0.72120734  0.83710803    -0.52000
C285        C  0.41230610  0.70352686  0.85059511     0.80600
O286        O  0.40167755  0.80479176  0.07957231    -0.57700
O287        O  0.44967735  0.78054751  0.14103523    -0.50700
C288        C  0.41468561  0.79840736  0.12776413     0.72600
O289        O  0.39897893  0.80403066  0.89923173    -0.72300
O290        O  0.44764661  0.78045268  0.83722885    -0.52800
C291        C  0.41202314  0.79792740  0.85087743     0.78600
O292        O  0.40222370  0.69641372  0.07972460    -0.57400
O293        O  0.44982111  0.72093629  0.14109958    -0.50500
C294        C  0.41507768  0.70295340  0.12790597     0.75200
Zr295      Zr  0.42726784  0.71025234  0.98916449     2.54700
O296        O  0.32938984  0.71183651  0.99038966    -0.78000
O297        O  0.42926023  0.66105361  0.98942472    -0.91400
Zr298      Zr  0.42651730  0.79064455  0.98925924     2.64700
O299        O  0.32878093  0.78734443  0.98895620    -0.96300
O300        O  0.42519281  0.83982995  0.98948396    -0.78400
O301        O  0.42553954  0.75048158  0.93745088    -0.81800
O302        O  0.42601501  0.75044375  0.04092603    -2.16500
O303        O  0.61441551  0.69732619  0.07864775    -0.65100
O304        O  0.56686231  0.72139699  0.14076584    -0.49700
C305        C  0.60215497  0.70377903  0.12706456     0.73600
O306        O  0.61601424  0.80300020  0.89802477    -0.58100
O307        O  0.56598821  0.77987865  0.83645102    -0.50000
C308        C  0.60272284  0.79681939  0.84975529     0.75400
O309        O  0.61394929  0.80442384  0.07903898    -0.69400
O310        O  0.56686673  0.77999096  0.14095908    -0.48100
C311        C  0.60192796  0.79777046  0.12742582     0.76800
O312        O  0.61523868  0.69826890  0.89732011    -0.64800
O313        O  0.56619769  0.72201192  0.83591558    -0.52000
C314        C  0.60232822  0.70472323  0.84908286     0.75200
Zr315      Zr  0.58745613  0.71055785  0.98811383     2.77500
O316        O  0.68539189  0.71072759  0.98667057    -0.95500
O317        O  0.58360079  0.66142558  0.98717197    -0.76300
Zr318      Zr  0.58677631  0.79116929  0.98853740     2.70100
O319        O  0.68463844  0.79195014  0.99009114    -0.77600
O320        O  0.57970226  0.84019311  0.98560916    -0.96700
Zr321      Zr  0.50662086  0.75077288  0.88695186     2.21500
Zr322      Zr  0.50775070  0.75070726  0.09058542     2.11100
O323        O  0.58873582  0.75081581  0.03961297    -2.45400
O324        O  0.58802654  0.75092331  0.93687171    -0.77400
O325        O  0.50769468  0.70984716  0.04038429    -0.69600
O326        O  0.50648628  0.79159597  0.93735408    -2.30500
O327        O  0.50711718  0.70980505  0.93702077    -2.26700
O328        O  0.50692310  0.79158376  0.04060905    -0.71300
H329        H  0.39518908  0.75035753  0.06447527     0.80700
H330        H  0.50643393  0.80719002  0.91411104     0.81700
H331        H  0.61996108  0.75087508  0.06257925     0.84000
H332        H  0.50723309  0.69425791  0.91366010     0.81600
H333        H  0.45378131  0.84514844  0.96396885     0.44600
H334        H  0.55319977  0.84470673  0.01382439     0.43600
H335        H  0.69531947  0.77350154  0.97907298     0.43300
H336        H  0.69598193  0.72236631  0.01711929     0.41200
H337        H  0.55032085  0.65696394  0.00708287     0.44300
H338        H  0.45166878  0.65609485  0.95815979     0.39100
H339        H  0.32003880  0.72675450  0.96567985     0.45200
H340        H  0.31973981  0.77675519  0.02135679     0.41600
H341        H  0.69572911  0.69224959  0.99782692     0.46600
H342        H  0.39232793  0.65560532  0.97926340     0.45300
H343        H  0.31624008  0.80587842  0.99708049     0.44700
H344        H  0.61450143  0.84674305  0.99983560     0.45800
O345        O  0.41010497  0.95539611  0.38224435    -0.73100
O346        O  0.45834251  0.92411024  0.42935623    -0.52000
C347        C  0.42295731  0.93099625  0.39449976     0.80600
O348        O  0.62282732  0.54704939  0.38322651    -0.57700
O349        O  0.57445899  0.57806631  0.43094392    -0.50700
C350        C  0.60971102  0.57138860  0.39578948     0.72600
O351        O  0.62175872  0.95559467  0.38053447    -0.72300
O352        O  0.57529735  0.92425028  0.42935504    -0.52800
C353        C  0.60956861  0.93115955  0.39340394     0.78600
O354        O  0.40892456  0.54637654  0.38347735    -0.57400
O355        O  0.45622977  0.57755635  0.43181173    -0.50500
C356        C  0.42115707  0.57073516  0.39659806     0.75200
Zr357      Zr  0.43621887  0.50091773  0.40967035     2.54700
O358        O  0.43812276  0.50129929  0.31227764    -0.78000
O359        O  0.33830049  0.50130444  0.41261845    -0.91400
Zr360      Zr  0.59647273  0.50119094  0.40888661     2.64700
O361        O  0.59571621  0.50158380  0.31138474    -0.96300
O362        O  0.69434890  0.50091127  0.41183256    -0.78400
O363        O  0.51646034  0.97496774  0.40779584    -0.81800
O364        O  0.51615112  0.52706504  0.40825102    -2.16500
O365        O  0.40890883  0.54619855  0.59483624    -0.65100
O366        O  0.45734715  0.57755869  0.54802716    -0.49700
C367        C  0.42167992  0.57062985  0.58257750     0.73600
O368        O  0.62108151  0.95516013  0.59705968    -0.58100
O369        O  0.57474568  0.92400979  0.54769730    -0.50000
C370        C  0.60870777  0.93077779  0.58400794     0.75400
O371        O  0.62357556  0.54640856  0.59521660    -0.69400
O372        O  0.57501061  0.57761071  0.54819765    -0.48100
C373        C  0.61042499  0.57079937  0.58307771     0.76800
O374        O  0.41058784  0.95497567  0.59561247    -0.64800
O375        O  0.45807205  0.92389483  0.54714797    -0.52000
C376        C  0.42309867  0.93062179  0.58259371     0.75200
Zr377      Zr  0.43681055  0.50062401  0.56902987     2.77500
O378        O  0.44046066  0.50025414  0.66646011    -0.95500
O379        O  0.33893526  0.50013632  0.56700645    -0.76300
Zr380      Zr  0.59713968  0.50082178  0.56807410     2.70100
O381        O  0.59990748  0.50218700  0.66543638    -0.77600
O382        O  0.69469547  0.49979994  0.56004725    -0.96700
Zr383      Zr  0.51674948  0.94939427  0.48848482     2.21500
Zr384      Zr  0.51625697  0.55235440  0.48941285     2.11100
O385        O  0.51681374  0.52667379  0.57002135    -2.45400
O386        O  0.51706998  0.97464598  0.56952679    -0.77400
O387        O  0.43514142  0.52688893  0.48955391    -0.69600
O388        O  0.59809489  0.97487849  0.48828732    -2.30500
O389        O  0.43534133  0.97473337  0.48914912    -2.26700
O390        O  0.59781438  0.52721549  0.48874585    -0.71300
H391        H  0.51589070  0.53883481  0.37740888     0.80700
H392        H  0.62919003  0.96317902  0.48814384     0.81700
H393        H  0.51687891  0.53831024  0.60104269     0.84000
H394        H  0.40431633  0.96298755  0.48919811     0.81600
H395        H  0.70386685  0.01614966  0.43569870     0.44600
H396        H  0.70398961  0.51680229  0.54131701     0.43600
H397        H  0.56280761  0.99764248  0.67665877     0.43300
H398        H  0.46044918  0.51683959  0.67619455     0.41200
H399        H  0.32950827  0.50957633  0.53334732     0.44300
H400        H  0.32833203  0.98472838  0.43247197     0.39100
H401        H  0.47449457  0.99462681  0.30296441     0.45200
H402        H  0.57716905  0.51856414  0.30150008     0.41600
H403        H  0.40300818  0.50386311  0.67789609     0.46600
H404        H  0.32711365  0.49769236  0.37526120     0.45300
H405        H  0.63373110  0.50461192  0.30116309     0.45400
H406        H  0.70787441  0.50245941  0.59706810     0.45800
O407        O  0.92157169  0.80337169  0.37991604    -0.73100
O408        O  0.85956109  0.77991306  0.42893543    -0.52000
C409        C  0.87305174  0.79701140  0.39269679     0.80600
O410        O  0.10358166  0.69677611  0.38405014    -0.57700
O411        O  0.16565840  0.72154370  0.43033322    -0.50700
C412        C  0.15210031  0.70340601  0.39620784     0.72600
O413        O  0.92174323  0.69876939  0.37925269    -0.72300
O414        O  0.85963259  0.72195586  0.42864795    -0.52800
C415        C  0.87318167  0.70502446  0.39212573     0.78600
O416        O  0.10296504  0.80541977  0.38369268    -0.57400
O417        O  0.16522539  0.78104240  0.43051453    -0.50500
C418        C  0.15152961  0.79903408  0.39609268     0.75200
Zr419      Zr  0.01232829  0.79136038  0.40902417     2.54700
O420        O  0.01509585  0.79137317  0.31165535    -0.78000
O421        O  0.01087190  0.84052239  0.41225859    -0.91400
Zr422      Zr  0.01253205  0.71080369  0.40843479     2.64700
O423        O  0.01461853  0.71200846  0.31100409    -0.96300
O424        O  0.01041389  0.66161090  0.40963492    -0.78400
O425        O  0.96070223  0.75104306  0.40747775    -0.81800
O426        O  0.06419749  0.75112213  0.40738825    -2.16500
O427        O  0.10310153  0.80517210  0.59327072    -0.65100
O428        O  0.16537763  0.78060342  0.54678487    -0.49700
C429        C  0.15168535  0.79865834  0.58107746     0.73600
O430        O  0.92202210  0.69875046  0.59754709    -0.58100
O431        O  0.85995202  0.72194116  0.54812295    -0.50000
C432        C  0.87349785  0.70501528  0.58463736     0.75400
O433        O  0.10331320  0.69663277  0.59307327    -0.69400
O434        O  0.16529331  0.72102393  0.54579897    -0.48100
C435        C  0.15180335  0.70306108  0.58036609     0.76800
O436        O  0.92123995  0.80325269  0.59666845    -0.64800
O437        O  0.85927943  0.77980565  0.54759350    -0.52000
C438        C  0.87271607  0.79692095  0.58379976     0.75200
Zr439      Zr  0.01225656  0.79109012  0.56829141     2.77500
O440        O  0.01305758  0.78985191  0.66574250    -0.95500
O441        O  0.01052256  0.84024470  0.56606044    -0.76300
Zr442      Zr  0.01260049  0.71055086  0.56762355     2.70100
O443        O  0.01610511  0.71006015  0.66498982    -0.77600
O444        O  0.00920993  0.66151315  0.56115779    -0.96700
Zr445      Zr  0.91012455  0.75089116  0.48828540     2.21500
Zr446      Zr  0.11484386  0.75107726  0.48833966     2.11100
O447        O  0.06419100  0.75087833  0.56926424    -2.45400
O448        O  0.96072551  0.75077027  0.56901488    -0.77400
O449        O  0.06433267  0.79188564  0.48864453    -0.69600
O450        O  0.96047218  0.70996291  0.48811148    -2.30500
O451        O  0.96028742  0.79189587  0.48866087    -2.26700
O452        O  0.06464774  0.71015332  0.48802443    -0.71300
H453        H  0.08757851  0.75120545  0.37650105     0.80700
H454        H  0.93693203  0.69443088  0.48815499     0.81700
H455        H  0.08757193  0.75080891  0.60011504     0.84000
H456        H  0.93673695  0.80741328  0.48878608     0.81600
H457        H  0.98702806  0.65690809  0.44033875     0.44600
H458        H  0.03976126  0.65670886  0.53756109     0.43600
H459        H  0.00126715  0.72780623  0.67576502     0.43300
H460        H  0.04545248  0.77924648  0.67517876     0.41200
H461        H  0.02835278  0.84502381  0.53189582     0.44300
H462        H  0.97804199  0.84510975  0.43277349     0.39100
H463        H  0.00474436  0.77276091  0.30146072     0.45200
H464        H  0.05006145  0.71985136  0.30175249     0.41600
H465        H  0.02184648  0.80857846  0.67658068     0.46600
H466        H  0.00266461  0.84610284  0.37508206     0.45300
H467        H  0.01733382  0.69281312  0.30018780     0.45400
H468        H  0.02010096  0.65506474  0.59707128     0.45800
C469        C  0.74673684  0.66869228  0.31780269     0.82400
N470        N  0.72355233  0.67952808  0.27354488    -0.75900
C471        C  0.67899384  0.66789730  0.25219403     0.84900
N472        N  0.65741690  0.64558396  0.27536073    -0.75800
C473        C  0.68061139  0.63478069  0.31961462     0.85000
N474        N  0.72510922  0.64640264  0.34092583    -0.77600
C475        C  0.74663880  0.83326911  0.31824136     0.82400
N476        N  0.72536336  0.85584997  0.34057964    -0.75900
C477        C  0.68099553  0.86742472  0.31887456     0.84900
N478        N  0.65762582  0.85628719  0.27504605    -0.75800
C479        C  0.67883783  0.83369622  0.25265515     0.85000
N480        N  0.72326069  0.82211229  0.27438447    -0.77600
C481        C  0.67863961  0.66852839  0.72379155     0.82400
N482        N  0.72315500  0.68005596  0.70214827    -0.75900
C483        C  0.74674236  0.66881605  0.65851014     0.84900
N484        N  0.72558652  0.64619541  0.63624966    -0.75800
C485        C  0.68111822  0.63465078  0.65786779     0.85000
N486        N  0.65751904  0.64587045  0.70154072    -0.77600
C487        C  0.34544697  0.86878935  0.32104256     0.82400
N488        N  0.30077499  0.85801511  0.34383542    -0.75900
C489        C  0.27670002  0.83620466  0.32129260     0.84900
N490        N  0.29759043  0.82501754  0.27626355    -0.75800
C491        C  0.34226908  0.83580559  0.25352175     0.85000
N492        N  0.36632395  0.85760190  0.27605303    -0.77600
C493        C  0.34137923  0.83568607  0.72454274     0.82400
N494        N  0.36587705  0.85735766  0.70186436    -0.75900
C495        C  0.34561488  0.86836181  0.65638213     0.84900
N496        N  0.30115393  0.85753081  0.63332306    -0.75800
C497        C  0.27669700  0.83585461  0.65600302     0.85000
N498        N  0.29695679  0.82486460  0.70146359    -0.77600
C499        C  0.34201232  0.66628801  0.72344586     0.82400
N500        N  0.36599993  0.64439151  0.70110387    -0.75900
C501        C  0.34552036  0.63336572  0.65574124     0.84900
N502        N  0.30135869  0.64436615  0.63249452    -0.75800
C503        C  0.27741181  0.66625298  0.65483197     0.85000
N504        N  0.29785259  0.67728082  0.70018022    -0.77600
C505        C  0.67864313  0.83301742  0.72428924     0.82400
N506        N  0.65695605  0.85560727  0.70233810    -0.75900
C507        C  0.68002536  0.86701586  0.65858415     0.84900
N508        N  0.72454131  0.85571253  0.63655025    -0.75800
C509        C  0.74623868  0.83312654  0.65845768     0.85000
N510        N  0.72316631  0.82170927  0.70221236    -0.77600
C511        C  0.34568651  0.63332928  0.32264185     0.82400
N512        N  0.30124027  0.64441614  0.34519621    -0.75900
C513        C  0.27780444  0.66632120  0.32242574     0.84900
N514        N  0.29904919  0.67727729  0.27734810    -0.75800
C515        C  0.34350048  0.66617297  0.25480526     0.85000
N516        N  0.36697059  0.64427143  0.27757590    -0.77600
C517        C  0.19455491  0.68922912  0.60727751    -0.11100
C518        C  0.23176301  0.67837034  0.62937750    -0.12600
C519        C  0.23117191  0.82364478  0.63041508    -0.11100
C520        C  0.19424497  0.81258581  0.60818343    -0.12600
C521        C  0.23101252  0.82403969  0.34672399    -0.11100
C522        C  0.19405891  0.81300446  0.36899409    -0.12600
C523        C  0.19479154  0.68954795  0.36924950    -0.11100
C524        C  0.23201027  0.67859938  0.34732496    -0.12600
C525        C  0.79231433  0.82076147  0.63404336    -0.11100
C526        C  0.82982130  0.81009789  0.61194018    -0.12600
C527        C  0.79298601  0.68130099  0.63475994    -0.11100
C528        C  0.83066488  0.69194531  0.61296647    -0.12600
C529        C  0.83037093  0.69198131  0.36363041    -0.11100
C530        C  0.79285425  0.68133168  0.34154095    -0.12600
C531        C  0.79270204  0.82072360  0.34226001    -0.11100
C532        C  0.83021978  0.81009871  0.36436919    -0.12600
C533        C  0.65782345  0.61124395  0.63316436    -0.11100
C534        C  0.63709248  0.59230224  0.61094474    -0.12600
C535        C  0.39394130  0.59201695  0.60968802    -0.11100
C536        C  0.37152633  0.61062858  0.63133934    -0.12600
C537        C  0.39357567  0.59214003  0.36953612    -0.11100
C538        C  0.37129165  0.61066809  0.34757032    -0.12600
C539        C  0.63614870  0.59295356  0.36792086    -0.11100
C540        C  0.65691443  0.61173014  0.34519829    -0.12600
C541        C  0.37244077  0.89074839  0.63146311    -0.11100
C542        C  0.39545513  0.90914050  0.60962061    -0.12600
C543        C  0.65604387  0.89033157  0.63418292    -0.11100
C544        C  0.63500060  0.90923219  0.61211064    -0.12600
C545        C  0.65750258  0.89078540  0.34356711    -0.11100
C546        C  0.63641845  0.90970636  0.36553662    -0.12600
C547        C  0.39513131  0.90964533  0.36740377    -0.11100
C548        C  0.37200051  0.89125942  0.34577176    -0.12600
C549        C  0.63044049  0.69039254  0.16947805    -0.11100
C550        C  0.65329723  0.67984669  0.20653974    -0.12600
C551        C  0.63022974  0.81107560  0.17000409    -0.11100
C552        C  0.65311262  0.82157478  0.20714022    -0.12600
C553        C  0.38768582  0.81222179  0.17038873    -0.11100
C554        C  0.36597691  0.82325686  0.20752858    -0.12600
C555        C  0.36712579  0.67832223  0.20835279    -0.11100
C556        C  0.38834198  0.68916990  0.17071927    -0.12600
C557        C  0.65344149  0.82061352  0.76977388    -0.11100
C558        C  0.63103593  0.80994780  0.80700406    -0.12600
C559        C  0.65290080  0.68079432  0.76913165    -0.11100
C560        C  0.63038863  0.69149791  0.80626069    -0.12600
C561        C  0.36477649  0.67859113  0.77021265    -0.11100
C562        C  0.38539739  0.68965472  0.80794877    -0.12600
C563        C  0.38505268  0.81193357  0.80845133    -0.11100
C564        C  0.36425591  0.82320790  0.77106276    -0.12600
loop_ 
_geom_bond_atom_site_label_1 
_geom_bond_atom_site_label_2 
_geom_bond_distance 
_geom_bond_site_symmetry_2 
_ccdc_geom_bond_type 
O1          Zr13   2.446       .  S
O1            C3   1.287       .  A
O2          Zr39   2.418       .  S
O2            C3   1.284       .  A
C3          C280   1.433       .  S
O4          Zr16   2.441   1_554  S
O4            C6   1.286       .  A
O5          Zr40   2.419       .  S
O5            C6   1.284       .  A
C6          C271   1.432       .  S
O7          Zr16   2.443       .  S
O7            C9   1.287       .  A
O8          Zr39   2.419       .  S
O8            C9   1.284       .  A
C9          C281   1.433       .  S
O10         Zr13   2.444   1_554  S
O10          C12   1.287       .  A
O11         Zr40   2.416       .  S
O11          C12   1.283       .  A
C12         C274   1.432       .  S
Zr13         O14   2.435       .  S
Zr13         O15   2.436       .  S
Zr13         O19   2.374       .  S
Zr13         O20   2.373   1_556  S
Zr13         O43   2.375   1_556  S
Zr13         O45   2.374       .  S
O14          H57   0.990       .  S
O15          H56   0.990       .  S
O15          H60   0.990       .  S
Zr16         O17   2.435       .  S
Zr16         O18   2.435       .  S
Zr16         O20   2.372   1_556  S
Zr16         O19   2.372       .  S
Zr16         O44   2.373       .  S
Zr16         O46   2.376   1_556  S
O17          H58   0.990   1_556  S
O17          H61   0.990       .  S
O18          H51   0.990       .  S
O19         Zr39   2.377       .  S
O20         Zr40   2.381       .  S
O20          H47   0.966       .  S
O21         Zr33   2.448   1_554  S
O21          C23   1.287       .  A
O22         Zr40   2.416       .  S
O22          C23   1.284       .  A
C23         C267   1.434       .  S
O24         Zr36   2.446       .  S
O24          C26   1.287       .  A
O25         Zr39   2.417       .  S
O25          C26   1.284       .  A
C26         C276   1.434       .  S
O27         Zr36   2.449   1_554  S
O27          C29   1.288       .  A
O28         Zr40   2.418       .  S
O28          C29   1.284       .  A
C29         C269   1.436       .  S
O30         Zr33   2.447       .  S
O30          C32   1.287       .  A
O31         Zr39   2.418       .  S
O31          C32   1.284       .  A
C32         C278   1.435       .  S
Zr33         O34   2.435       .  S
Zr33         O35   2.434       .  S
Zr33         O41   2.372   1_556  S
Zr33         O42   2.373       .  S
Zr33         O45   2.371       .  S
Zr33         O43   2.374   1_556  S
O34          H54   0.990   1_556  S
O34          H59   0.990       .  S
O35          H55   0.990   1_556  S
Zr36         O37   2.434       .  S
Zr36         O38   2.434       .  S
Zr36         O42   2.374       .  S
Zr36         O41   2.371   1_556  S
Zr36         O46   2.373   1_556  S
Zr36         O44   2.371       .  S
O37          H53   0.990       .  S
O38          H52   0.990   1_556  S
O38          H62   0.990       .  S
Zr39         O42   2.378       .  S
Zr39         O44   2.381       .  S
Zr39         O45   2.383       .  S
Zr40         O41   2.382       .  S
Zr40         O43   2.380       .  S
Zr40         O46   2.378       .  S
O41          H49   0.966       .  S
O44          H48   0.966       .  S
O45          H50   0.966       .  S
O63        Zr357   2.443       .  S
O63          C65   1.286       .  A
O64        Zr101   2.421       .  S
O64          C65   1.284       .  A
C65         C265   1.433       .  S
O66         Zr78   2.448       .  S
O66          C68   1.287       .  A
O67        Zr102   2.417       .  S
O67          C68   1.284       .  A
C68         C257   1.434       .  S
O69        Zr360   2.448       .  S
O69          C71   1.288       .  A
O70        Zr101   2.418       .  S
O70          C71   1.284       .  A
C71         C264   1.435       .  S
O72         Zr75   2.440       .  S
O72          C74   1.286       .  A
O73        Zr102   2.420       .  S
O73          C74   1.284       .  A
C74         C255   1.432       .  S
Zr75        O345   2.443   1_545  S
Zr75         O76   2.433       .  S
Zr75         O77   2.436       .  S
Zr75         O82   2.372       .  S
Zr75        O105   2.374       .  S
Zr75        O363   2.373   1_545  S
Zr75        O389   2.371   1_545  S
O76         H401   0.990   1_545  S
O77         H122   0.990   1_545  S
O77         H400   0.990   1_545  S
Zr78        O351   2.448   1_545  S
Zr78         O79   2.436       .  S
Zr78         O80   2.435       .  S
Zr78         O82   2.373       .  S
Zr78        O108   2.375       .  S
Zr78        O363   2.375   1_545  S
Zr78        O388   2.373   1_545  S
O79         H120   0.990       .  S
O79         H123   0.990       .  S
O80         H395   0.990       .  S
O81        Zr101   2.380       .  S
O81        Zr357   2.373       .  S
O81        Zr360   2.375       .  S
O82        Zr102   2.383       .  S
O82         H109   0.966       .  S
O83         Zr95   2.447       .  S
O83          C85   1.287       .  A
O84        Zr102   2.418       .  S
O84          C85   1.284       .  A
C85         C253   1.434       .  S
O86        Zr380   2.447       .  S
O86          C88   1.288       .  A
O87        Zr101   2.418       .  S
O87          C88   1.284       .  A
C88         C262   1.435       .  S
O89         Zr98   2.446       .  S
O89          C91   1.287       .  A
O90        Zr102   2.420       .  S
O90          C91   1.284       .  A
C91         C252   1.434       .  S
O92        Zr377   2.444       .  S
O92          C94   1.287       .  A
O93        Zr101   2.422       .  S
O93          C94   1.285       .  A
C94         C260   1.435       .  S
Zr95        O374   2.443   1_545  S
Zr95         O96   2.436       .  S
Zr95         O97   2.434       .  S
Zr95        O103   2.370       .  S
Zr95        O105   2.373       .  S
Zr95        O386   2.374   1_545  S
Zr95        O389   2.372   1_545  S
O96         H116   0.990       .  S
O96         H121   0.990       .  S
O97         H117   0.990       .  S
Zr98        O368   2.447   1_545  S
Zr98         O99   2.434       .  S
Zr98        O100   2.434   1_545  S
Zr98        O103   2.373       .  S
Zr98        O108   2.373       .  S
Zr98        O386   2.375   1_545  S
Zr98        O388   2.371   1_545  S
O99         H397   0.990   1_545  S
O100        H114   0.990   1_565  S
O100        H124   0.990   1_565  S
Zr101       O104   2.379       .  S
Zr101       O106   2.383       .  S
Zr101       O107   2.381       .  S
Zr102       O103   2.381       .  S
Zr102       O105   2.378       .  S
Zr102       O108   2.379       .  S
O103        H111   0.966       .  S
O104       Zr377   2.374       .  S
O104       Zr380   2.375       .  S
O106       Zr360   2.373       .  S
O106       Zr380   2.371       .  S
O106        H110   0.966       .  S
O107       Zr357   2.371       .  S
O107       Zr377   2.372       .  S
O107        H112   0.966       .  S
H113        O362   0.990       .  S
H115        O381   0.990       .  S
H118        O359   0.990       .  S
H119        O358   0.990       .  S
O125       Zr137   2.445   1_655  S
O125        C127   1.287       .  A
O126       Zr163   2.418       .  S
O126        C127   1.284       .  A
C127        C250   1.434       .  S
O128       Zr140   2.445       .  S
O128        C130   1.287       .  A
O129       Zr164   2.415       .  S
O129        C130   1.283       .  A
C130        C241   1.432       .  S
O131       Zr140   2.446   1_655  S
O131        C133   1.287       .  A
O132       Zr163   2.418       .  S
O132        C133   1.284       .  A
C133        C247   1.434       .  S
O134       Zr137   2.441       .  S
O134        C136   1.286       .  A
O135       Zr164   2.419       .  S
O135        C136   1.284       .  A
C136        C240   1.433       .  S
Zr137       O138   2.433       .  S
Zr137       O139   2.435       .  S
Zr137       O143   2.373   1_455  S
Zr137       O144   2.373       .  S
Zr137       O167   2.373       .  S
Zr137       O169   2.373   1_455  S
O138        H181   0.990       .  S
O139        H180   0.990   1_455  S
O139        H184   0.990       .  S
Zr140       O141   2.435       .  S
Zr140       O142   2.436       .  S
Zr140       O144   2.373       .  S
Zr140       O143   2.373   1_455  S
Zr140       O168   2.374   1_455  S
Zr140       O170   2.374       .  S
O141        H182   0.990       .  S
O141        H185   0.990       .  S
O142        H175   0.990   1_455  S
O143       Zr163   2.378       .  S
O144       Zr164   2.383       .  S
O144        H171   0.966       .  S
O145       Zr157   2.445       .  S
O145        C147   1.287       .  A
O146       Zr164   2.418       .  S
O146        C147   1.284       .  A
C147        C238   1.433       .  S
O148       Zr160   2.443   1_655  S
O148        C150   1.287       .  A
O149       Zr163   2.417       .  S
O149        C150   1.284       .  A
C150        C246   1.433       .  S
O151       Zr160   2.443       .  S
O151        C153   1.286       .  A
O152       Zr164   2.418       .  S
O152        C153   1.284       .  A
C153        C235   1.432       .  S
O154       Zr157   2.446   1_655  S
O154        C156   1.287       .  A
O155       Zr163   2.417       .  S
O155        C156   1.284       .  A
C156        C244   1.434       .  S
Zr157       O158   2.435       .  S
Zr157       O159   2.434       .  S
Zr157       O165   2.373       .  S
Zr157       O166   2.372   1_455  S
Zr157       O169   2.373   1_455  S
Zr157       O167   2.373       .  S
O158        H178   0.990       .  S
O158        H183   0.990       .  S
O159        H179   0.990       .  S
Zr160       O161   2.434       .  S
Zr160       O162   2.434       .  S
Zr160       O166   2.373   1_455  S
Zr160       O165   2.373       .  S
Zr160       O170   2.372       .  S
Zr160       O168   2.372   1_455  S
O161        H177   0.990       .  S
O162        H176   0.990       .  S
O162        H186   0.990       .  S
Zr163       O166   2.377       .  S
Zr163       O168   2.382       .  S
Zr163       O169   2.382       .  S
Zr164       O165   2.381       .  S
Zr164       O167   2.379       .  S
Zr164       O170   2.379       .  S
O165        H173   0.966       .  S
O168        H172   0.966       .  S
O169        H174   0.966       .  S
C187        C248   1.435       .  S
C187        N188   1.358       .  A
C187        N192   1.356       .  A
N188        C189   1.358       .  A
C189        C268   1.435       .  S
C189        N190   1.357       .  A
N190        C191   1.357       .  A
C191        C258   1.434       .  S
C191        N192   1.356       .  A
C193        C249   1.435       .  S
C193        N194   1.357       .  A
C193        N198   1.358       .  A
N194        C195   1.356       .  A
C195        C263   1.435       .  S
C195        N196   1.357       .  A
N196        C197   1.357       .  A
C197        C270   1.436       .  S
C197        N198   1.358       .  A
C199        C277   1.435       .  S
C199        N200   1.357       .  A
C199        N204   1.358       .  A
N200        C201   1.357       .  A
C201        C245   1.433       .  S
C201        N202   1.356       .  A
N202        C203   1.356       .  A
C203        C251   1.435       .  S
C203        N204   1.357       .  A
C205        C266   1.434       .  S
C205        N206   1.357       .  A
C205        N210   1.356       .  A
N206        C207   1.357       .  A
C207        C239   1.434       .  S
C207        N208   1.357       .  A
N208        C209   1.357       .  A
C209        C272   1.433       .  S
C209        N210   1.356       .  A
C211        C282   1.434       .  S
C211        N212   1.357       .  A
C211        N216   1.356       .  A
N212        C213   1.357       .  A
C213        C259   1.435       .  S
C213        N214   1.357       .  A
N214        C215   1.357       .  A
C215        C237   1.434       .  S
C215        N216   1.356       .  A
C217        C279   1.434       .  S
C217        N218   1.357       .  A
C217        N222   1.357       .  A
N218        C219   1.357       .  A
C219        C254   1.434       .  S
C219        N220   1.356       .  A
N220        C221   1.356       .  A
C221        C236   1.433       .  S
C221        N222   1.357       .  A
C223        C275   1.435       .  S
C223        N224   1.357       .  A
C223        N228   1.357       .  A
N224        C225   1.357       .  A
C225        C261   1.435       .  S
C225        N226   1.357       .  A
N226        C227   1.357       .  A
C227        C243   1.435       .  S
C227        N228   1.357       .  A
C229        C256   1.432       .  S
C229        N230   1.356       .  A
C229        N234   1.356       .  A
N230        C231   1.356       .  A
C231        C242   1.433       .  S
C231        N232   1.357       .  A
N232        C233   1.357       .  A
C233        C273   1.433       .  S
C233        N234   1.356       .  A
C235        C236   1.204       .  T
C237        C238   1.205       .  T
C239        C240   1.205       .  T
C241        C242   1.204       .  T
C243        C244   1.205       .  T
C245        C246   1.204       .  T
C247        C248   1.205       .  T
C249        C250   1.205       .  T
C251        C252   1.205       .  T
C253        C254   1.205       .  T
C255        C256   1.204       .  T
C257        C258   1.205       .  T
C259        C260   1.206       .  T
C261        C262   1.206       .  T
C263        C264   1.205       .  T
C265        C266   1.205       .  T
C267        C268   1.205       .  T
C269        C270   1.206       .  T
C271        C272   1.204       .  T
C273        C274   1.204       .  T
C275        C276   1.205       .  T
C277        C278   1.206       .  T
C279        C280   1.205       .  T
C281        C282   1.205       .  T
O283       Zr295   2.446       .  S
O283        C285   1.287       .  A
O284       Zr321   2.418       .  S
O284        C285   1.284       .  A
C285        C562   1.433       .  S
O286       Zr298   2.441   1_554  S
O286        C288   1.286       .  A
O287       Zr322   2.420       .  S
O287        C288   1.284       .  A
C288        C553   1.432       .  S
O289       Zr298   2.443       .  S
O289        C291   1.287       .  A
O290       Zr321   2.419       .  S
O290        C291   1.284       .  A
C291        C563   1.433       .  S
O292       Zr295   2.444   1_554  S
O292        C294   1.287       .  A
O293       Zr322   2.416       .  S
O293        C294   1.283       .  A
C294        C556   1.432       .  S
Zr295       O296   2.435       .  S
Zr295       O297   2.436       .  S
Zr295       O301   2.374       .  S
Zr295       O302   2.373   1_556  S
Zr295       O325   2.375   1_556  S
Zr295       O327   2.374       .  S
O296        H339   0.990       .  S
O297        H338   0.990       .  S
O297        H342   0.990       .  S
Zr298       O299   2.435       .  S
Zr298       O300   2.435       .  S
Zr298       O302   2.372   1_556  S
Zr298       O301   2.373       .  S
Zr298       O326   2.373       .  S
Zr298       O328   2.376   1_556  S
O299        H340   0.990   1_556  S
O299        H343   0.990       .  S
O300        H333   0.990       .  S
O301       Zr321   2.377       .  S
O302       Zr322   2.381       .  S
O302        H329   0.966       .  S
O303       Zr315   2.448   1_554  S
O303        C305   1.287       .  A
O304       Zr322   2.416       .  S
O304        C305   1.284       .  A
C305        C549   1.434       .  S
O306       Zr318   2.446       .  S
O306        C308   1.287       .  A
O307       Zr321   2.417       .  S
O307        C308   1.284       .  A
C308        C558   1.434       .  S
O309       Zr318   2.449   1_554  S
O309        C311   1.288       .  A
O310       Zr322   2.418       .  S
O310        C311   1.284       .  A
C311        C551   1.436       .  S
O312       Zr315   2.447       .  S
O312        C314   1.287       .  A
O313       Zr321   2.418       .  S
O313        C314   1.284       .  A
C314        C560   1.435       .  S
Zr315       O316   2.435       .  S
Zr315       O317   2.434       .  S
Zr315       O323   2.372   1_556  S
Zr315       O324   2.373       .  S
Zr315       O327   2.371       .  S
Zr315       O325   2.374   1_556  S
O316        H336   0.990   1_556  S
O316        H341   0.990       .  S
O317        H337   0.990   1_556  S
Zr318       O319   2.434       .  S
Zr318       O320   2.434       .  S
Zr318       O324   2.374       .  S
Zr318       O323   2.371   1_556  S
Zr318       O328   2.373   1_556  S
Zr318       O326   2.371       .  S
O319        H335   0.990       .  S
O320        H334   0.990   1_556  S
O320        H344   0.990       .  S
Zr321       O324   2.378       .  S
Zr321       O326   2.381       .  S
Zr321       O327   2.383       .  S
Zr322       O323   2.382       .  S
Zr322       O325   2.380       .  S
Zr322       O328   2.378       .  S
O323        H331   0.966       .  S
O326        H330   0.966       .  S
O327        H332   0.966       .  S
O345        C347   1.286       .  A
O346       Zr383   2.421       .  S
O346        C347   1.284       .  A
C347        C547   1.433       .  S
O348       Zr360   2.448       .  S
O348        C350   1.287       .  A
O349       Zr384   2.417       .  S
O349        C350   1.284       .  A
C350        C539   1.434       .  S
O351        C353   1.288       .  A
O352       Zr383   2.418       .  S
O352        C353   1.284       .  A
C353        C546   1.435       .  S
O354       Zr357   2.440       .  S
O354        C356   1.286       .  A
O355       Zr384   2.420       .  S
O355        C356   1.284       .  A
C356        C537   1.432       .  S
Zr357       O358   2.433       .  S
Zr357       O359   2.436       .  S
Zr357       O364   2.372       .  S
Zr357       O387   2.374       .  S
O359        H404   0.990       .  S
Zr360       O361   2.436       .  S
Zr360       O362   2.435       .  S
Zr360       O364   2.373       .  S
Zr360       O390   2.375       .  S
O361        H402   0.990       .  S
O361        H405   0.990       .  S
O363       Zr383   2.380       .  S
O364       Zr384   2.383       .  S
O364        H391   0.966       .  S
O365       Zr377   2.447       .  S
O365        C367   1.287       .  A
O366       Zr384   2.418       .  S
O366        C367   1.284       .  A
C367        C535   1.434       .  S
O368        C370   1.288       .  A
O369       Zr383   2.418       .  S
O369        C370   1.284       .  A
C370        C544   1.435       .  S
O371       Zr380   2.446       .  S
O371        C373   1.287       .  A
O372       Zr384   2.420       .  S
O372        C373   1.284       .  A
C373        C534   1.434       .  S
O374        C376   1.287       .  A
O375       Zr383   2.422       .  S
O375        C376   1.285       .  A
C376        C542   1.435       .  S
Zr377       O378   2.436       .  S
Zr377       O379   2.434       .  S
Zr377       O385   2.370       .  S
Zr377       O387   2.373       .  S
O378        H398   0.990       .  S
O378        H403   0.990       .  S
O379        H399   0.990       .  S
Zr380       O381   2.434       .  S
Zr380       O382   2.434       .  S
Zr380       O385   2.373       .  S
Zr380       O390   2.373       .  S
O382        H396   0.990       .  S
O382        H406   0.990       .  S
Zr383       O386   2.379       .  S
Zr383       O388   2.383       .  S
Zr383       O389   2.381       .  S
Zr384       O385   2.381       .  S
Zr384       O387   2.378       .  S
Zr384       O390   2.379       .  S
O385        H393   0.966       .  S
O388        H392   0.966       .  S
O389        H394   0.966       .  S
O407       Zr419   2.445   1_655  S
O407        C409   1.287       .  A
O408       Zr445   2.418       .  S
O408        C409   1.284       .  A
C409        C532   1.434       .  S
O410       Zr422   2.445       .  S
O410        C412   1.287       .  A
O411       Zr446   2.415       .  S
O411        C412   1.283       .  A
C412        C523   1.432       .  S
O413       Zr422   2.446   1_655  S
O413        C415   1.287       .  A
O414       Zr445   2.418       .  S
O414        C415   1.284       .  A
C415        C529   1.434       .  S
O416       Zr419   2.441       .  S
O416        C418   1.286       .  A
O417       Zr446   2.419       .  S
O417        C418   1.284       .  A
C418        C522   1.433       .  S
Zr419       O420   2.433       .  S
Zr419       O421   2.435       .  S
Zr419       O425   2.373   1_455  S
Zr419       O426   2.373       .  S
Zr419       O449   2.373       .  S
Zr419       O451   2.373   1_455  S
O420        H463   0.990       .  S
O421        H462   0.990   1_455  S
O421        H466   0.990       .  S
Zr422       O423   2.435       .  S
Zr422       O424   2.436       .  S
Zr422       O426   2.373       .  S
Zr422       O425   2.373   1_455  S
Zr422       O450   2.374   1_455  S
Zr422       O452   2.374       .  S
O423        H464   0.990       .  S
O423        H467   0.990       .  S
O424        H457   0.990   1_455  S
O425       Zr445   2.378       .  S
O426       Zr446   2.383       .  S
O426        H453   0.966       .  S
O427       Zr439   2.445       .  S
O427        C429   1.287       .  A
O428       Zr446   2.418       .  S
O428        C429   1.284       .  A
C429        C520   1.433       .  S
O430       Zr442   2.443   1_655  S
O430        C432   1.287       .  A
O431       Zr445   2.417       .  S
O431        C432   1.284       .  A
C432        C528   1.433       .  S
O433       Zr442   2.443       .  S
O433        C435   1.286       .  A
O434       Zr446   2.418       .  S
O434        C435   1.284       .  A
C435        C517   1.432       .  S
O436       Zr439   2.446   1_655  S
O436        C438   1.287       .  A
O437       Zr445   2.417       .  S
O437        C438   1.284       .  A
C438        C526   1.434       .  S
Zr439       O440   2.435       .  S
Zr439       O441   2.434       .  S
Zr439       O447   2.373       .  S
Zr439       O448   2.372   1_455  S
Zr439       O451   2.373   1_455  S
Zr439       O449   2.373       .  S
O440        H460   0.990       .  S
O440        H465   0.990       .  S
O441        H461   0.990       .  S
Zr442       O443   2.434       .  S
Zr442       O444   2.434       .  S
Zr442       O448   2.373   1_455  S
Zr442       O447   2.373       .  S
Zr442       O452   2.372       .  S
Zr442       O450   2.372   1_455  S
O443        H459   0.990       .  S
O444        H458   0.990       .  S
O444        H468   0.990       .  S
Zr445       O448   2.377       .  S
Zr445       O450   2.382       .  S
Zr445       O451   2.382       .  S
Zr446       O447   2.381       .  S
Zr446       O449   2.379       .  S
Zr446       O452   2.379       .  S
O447        H455   0.966       .  S
O450        H454   0.966       .  S
O451        H456   0.966       .  S
C469        C530   1.435       .  S
C469        N470   1.358       .  A
C469        N474   1.356       .  A
N470        C471   1.358       .  A
C471        C550   1.435       .  S
C471        N472   1.357       .  A
N472        C473   1.357       .  A
C473        C540   1.434       .  S
C473        N474   1.356       .  A
C475        C531   1.435       .  S
C475        N476   1.357       .  A
C475        N480   1.358       .  A
N476        C477   1.356       .  A
C477        C545   1.435       .  S
C477        N478   1.357       .  A
N478        C479   1.357       .  A
C479        C552   1.436       .  S
C479        N480   1.358       .  A
C481        C559   1.435       .  S
C481        N482   1.357       .  A
C481        N486   1.358       .  A
N482        C483   1.357       .  A
C483        C527   1.433       .  S
C483        N484   1.356       .  A
N484        C485   1.356       .  A
C485        C533   1.435       .  S
C485        N486   1.357       .  A
C487        C548   1.434       .  S
C487        N488   1.357       .  A
C487        N492   1.356       .  A
N488        C489   1.357       .  A
C489        C521   1.434       .  S
C489        N490   1.357       .  A
N490        C491   1.357       .  A
C491        C554   1.433       .  S
C491        N492   1.356       .  A
C493        C564   1.434       .  S
C493        N494   1.357       .  A
C493        N498   1.356       .  A
N494        C495   1.357       .  A
C495        C541   1.435       .  S
C495        N496   1.357       .  A
N496        C497   1.357       .  A
C497        C519   1.434       .  S
C497        N498   1.356       .  A
C499        C561   1.434       .  S
C499        N500   1.357       .  A
C499        N504   1.357       .  A
N500        C501   1.357       .  A
C501        C536   1.434       .  S
C501        N502   1.356       .  A
N502        C503   1.356       .  A
C503        C518   1.433       .  S
C503        N504   1.357       .  A
C505        C557   1.435       .  S
C505        N506   1.357       .  A
C505        N510   1.357       .  A
N506        C507   1.357       .  A
C507        C543   1.435       .  S
C507        N508   1.357       .  A
N508        C509   1.357       .  A
C509        C525   1.435       .  S
C509        N510   1.357       .  A
C511        C538   1.432       .  S
C511        N512   1.356       .  A
C511        N516   1.356       .  A
N512        C513   1.356       .  A
C513        C524   1.433       .  S
C513        N514   1.357       .  A
N514        C515   1.357       .  A
C515        C555   1.433       .  S
C515        N516   1.356       .  A
C517        C518   1.204       .  T
C519        C520   1.205       .  T
C521        C522   1.205       .  T
C523        C524   1.204       .  T
C525        C526   1.205       .  T
C527        C528   1.204       .  T
C529        C530   1.205       .  T
C531        C532   1.205       .  T
C533        C534   1.205       .  T
C535        C536   1.205       .  T
C537        C538   1.204       .  T
C539        C540   1.205       .  T
C541        C542   1.206       .  T
C543        C544   1.206       .  T
C545        C546   1.205       .  T
C547        C548   1.205       .  T
C549        C550   1.205       .  T
C551        C552   1.206       .  T
C553        C554   1.204       .  T
C555        C556   1.204       .  T
C557        C558   1.205       .  T
C559        C560   1.206       .  T
C561        C562   1.205       .  T
C563        C564   1.205       .  T
