geometry optimzed in LAMMPS
_audit_creation_date              2020-11-30 
_audit_creation_method            'lammps2cif' 
_symmetry_space_group_name_H-M    'P1' 
_symmetry_Int_Tables_number       1 
_symmetry_cell_setting            triclinic 
loop_ 
_symmetry_equiv_pos_as_xyz 
  x,y,z 
_cell_length_a                    49.96548327382209 
_cell_length_b                    50.65485726973426 
_cell_length_c                    36.14826778256581 
_cell_angle_alpha                 89.40353836258119 
_cell_angle_beta                  89.91570890611104 
_cell_angle_gamma                 119.91895923988609 
loop_ 
_atom_site_label 
_atom_site_type_symbol 
_atom_site_fract_x 
_atom_site_fract_y 
_atom_site_fract_z 
_atom_site_charge 
C1          C  0.99710064  0.02919842  0.99369239     0.03280
C2          C  0.02474288  0.02833811  0.99147580    -0.12870
C3          C  0.02606202  0.00294689  0.00392969     0.00780
C4          C  0.49896898  0.47636852  0.01398365    -0.11400
C5          C  0.47000064  0.47442716  0.01020454     0.03270
C6          C  0.46963761  0.50152515  0.00148025    -0.10820
H7          H  0.04583417  0.04771408  0.98125006     0.08860
H8          H  0.50074115  0.45698524  0.02353430     0.06390
H9          H  0.44799453  0.50103146  0.00081226     0.06240
C10         C  0.16465791  0.35950117  0.67145770     0.03280
C11         C  0.14015158  0.33121719  0.68349789    -0.12870
C12         C  0.14017097  0.30394960  0.67690046     0.00780
C13         C  0.16748196  0.30515178  0.66564000    -0.11400
C14         C  0.19363061  0.33319093  0.65720257     0.03270
C15         C  0.19126832  0.35972258  0.65739564    -0.10820
H16         H  0.12008253  0.32954480  0.69673108     0.08860
H17         H  0.16825579  0.28434632  0.66282184     0.06390
H18         H  0.21086198  0.38053969  0.64717608     0.06240
C19         C  0.35437656  0.16368140  0.32849100     0.03280
C20         C  0.32721983  0.13882493  0.31528215    -0.12870
C21         C  0.29909067  0.13849469  0.31751414     0.00780
C22         C  0.29873543  0.16513538  0.32637878    -0.11400
C23         C  0.32605903  0.19109360  0.33706245     0.03270
C24         C  0.35312577  0.18940004  0.34041296    -0.10820
H25         H  0.32724839  0.11879378  0.30548388     0.08860
H26         H  0.27718071  0.16528161  0.32600521     0.06390
H27         H  0.37351709  0.20881699  0.35140169     0.06240
C28         C  0.32630982  0.30553646  0.97094332     0.03280
C29         C  0.35312375  0.33439166  0.97115552    -0.12870
C30         C  0.35684808  0.35623973  0.99747764     0.00780
C31         C  0.33169297  0.34969644  0.02069168    -0.11400
C32         C  0.30369144  0.32214497  0.01868898     0.03270
C33         C  0.30151661  0.29946309  0.99477523    -0.10820
H34         H  0.37134254  0.33922039  0.95151551     0.08860
H35         H  0.33384653  0.36593153  0.04137088     0.06390
H36         H  0.28114760  0.27707180  0.99528500     0.06240
C37         C  0.33942538  0.31269091  0.68758032     0.03280
C38         C  0.31140599  0.31268551  0.68435600    -0.12870
C39         C  0.30938337  0.33407588  0.66137641     0.00780
C40         C  0.33505963  0.35475957  0.64057562    -0.11400
C41         C  0.36315058  0.35507099  0.64335227     0.03270
C42         C  0.36539833  0.33406114  0.66707874    -0.10820
H43         H  0.29134360  0.29635401  0.70011971     0.08860
H44         H  0.33328337  0.37100125  0.62243468     0.06390
H45         H  0.38717970  0.33446759  0.66982516     0.06240
C46         C  0.31137440  0.33880821  0.31837020     0.03280
C47         C  0.31121183  0.31108205  0.32021484    -0.12870
C48         C  0.33351854  0.30844854  0.34075509     0.00780
C49         C  0.35606233  0.33368055  0.35982724    -0.11400
C50         C  0.35671529  0.36167309  0.35788707     0.03270
C51         C  0.33372324  0.36387729  0.33808168    -0.10820
H52         H  0.29405073  0.29165510  0.30502709     0.08860
H53         H  0.37307827  0.33157981  0.37618959     0.06390
H54         H  0.33345031  0.38511827  0.33776039     0.06240
C55         C  0.16618361  0.47192366  0.01516833     0.03280
C56         C  0.14162943  0.47749606  0.02131455    -0.12870
C57         C  0.13970390  0.50024867  0.00137613     0.00780
C58         C  0.16465196  0.02094744  0.97984923    -0.11400
C59         C  0.19025803  0.01707169  0.97395272     0.03270
C60         C  0.19003548  0.99146150  0.99022633    -0.10820
H61         H  0.12348228  0.46379560  0.04088811     0.08860
H62         H  0.16352674  0.03966273  0.96657817     0.06390
H63         H  0.20801742  0.98644287  0.98331635     0.06240
C64         C  0.00628820  0.15563347  0.36762777     0.03280
C65         C  0.47720108  0.15203267  0.35998800    -0.12870
C66         C  0.47338271  0.16914177  0.33185036     0.00780
C67         C  0.99858725  0.18754192  0.30880468    -0.11400
C68         C  0.02834302  0.19328678  0.31753166     0.03270
C69         C  0.03216828  0.17772672  0.34761808    -0.10820
H70         H  0.45751453  0.13586082  0.37626324     0.08860
H71         H  0.99538538  0.19833137  0.28462385     0.06390
H72         H  0.05498630  0.18237255  0.35532454     0.06240
C73         C  0.16334451  0.46726151  0.31833100     0.03280
C74         C  0.18943278  0.49628223  0.31505243    -0.12870
C75         C  0.19071435  0.02081352  0.33377066     0.00780
C76         C  0.16582631  0.01645922  0.35582013    -0.11400
C77         C  0.13961437  0.48751810  0.35956702     0.03270
C78         C  0.13812969  0.46287993  0.34028446    -0.10820
H79         H  0.20864375  0.49984043  0.29757402     0.08860
H80         H  0.16672328  0.03570678  0.36983650     0.06390
H81         H  0.11746008  0.44069520  0.34185678     0.06240
O82         O  0.12003584  0.31200217  0.12455970    -0.81650
C83         C  0.22005422  0.33714751  0.21964160     0.97700
O84         O  0.20422428  0.31284021  0.20175760    -0.70770
O85         O  0.14512927  0.28663256  0.21464805    -0.74360
Al86       Al  0.16840236  0.29879448  0.17044714     1.48980
C87         C  0.11953255  0.28512526  0.21980211     0.92960
O88         O  0.14430698  0.35867953  0.21061694    -0.80580
O89         O  0.19649673  0.38222720  0.12143902    -0.74140
Al90       Al  0.13438154  0.33539944  0.16770209     1.90120
O91         O  0.19198564  0.39253397  0.19571821    -0.73210
O92         O  0.22727785  0.35356756  0.13806151    -0.73060
O93         O  0.21896006  0.36083561  0.21185680    -0.78720
O94         O  0.19189055  0.30650364  0.12637947    -0.76920
O95         O  0.16949453  0.33446351  0.16823311    -1.13060
O96         O  0.13175513  0.27699581  0.14013004    -0.72250
C97         C  0.11631001  0.28573717  0.12095305     0.98470
C98         C  0.16773934  0.38439339  0.21474217     0.94860
Al99       Al  0.20560871  0.36928832  0.16681509     1.55560
O100        O  0.11153588  0.30041212  0.19953469    -0.76870
C101        C  0.21845132  0.32896119  0.12082883     0.99030
C102        C  0.17335324  0.38541872  0.11615672     0.93910
O103        O  0.14937335  0.37067233  0.13600413    -0.82190
C104        C  0.48227310  0.17885357  0.97744581     0.03280
C105        C  0.48101511  0.15059189  0.98156302    -0.12870
C106        C  0.00118058  0.14638349  0.00441964     0.00780
C107        C  0.02126306  0.17074000  0.02667143    -0.11400
C108        C  0.02479094  0.19985513  0.02158562     0.03270
C109        C  0.00555113  0.20401182  0.99649463    -0.10820
H110        H  0.46414413  0.13149461  0.96606292     0.08860
H111        H  0.03422533  0.16730277  0.04811100     0.06360
H112        H  0.00885197  0.22653423  0.99218415     0.06240
C113        C  0.14994911  0.00751109  0.63762032     0.03280
C114        C  0.14842882  0.47946831  0.64387352    -0.12870
C115        C  0.16778064  0.47659502  0.66978199     0.00780
C116        C  0.18690457  0.00173318  0.69149176    -0.11400
C117        C  0.18993452  0.03042470  0.68437319     0.03270
C118        C  0.17161511  0.03326061  0.65689769    -0.10820
H119        H  0.13203091  0.45981503  0.62844522     0.08860
H120        H  0.19994805  0.99922586  0.71370882     0.06390
H121        H  0.17426945  0.05526312  0.65009099     0.06240
C122        C  0.49455175  0.14153449  0.64044935     0.03280
C123        C  0.02156106  0.17015428  0.64044798    -0.12870
C124        C  0.02265066  0.19441366  0.65983039     0.00780
C125        C  0.49602224  0.19094271  0.67704245    -0.11400
C126        C  0.46823048  0.16328361  0.67519667     0.03270
C127        C  0.46772694  0.13834922  0.65776992    -0.10820
H128        H  0.04213061  0.17341494  0.62630991     0.08860
H129        H  0.49720817  0.20938358  0.69323879     0.06390
H130        H  0.44672439  0.11639799  0.65860112     0.06240
O131        O  0.30767204  0.11604491  0.87441145    -0.81650
C132        C  0.33770602  0.21938401  0.78240596     0.97700
O133        O  0.31335060  0.20389549  0.80122381    -0.70770
O134        O  0.28499788  0.14559079  0.78529033    -0.74360
Al135      Al  0.29801908  0.16712735  0.83028324     1.48980
C136        C  0.28248301  0.11998998  0.77926547     0.92960
O137        O  0.35562242  0.13961298  0.78663523    -0.80580
O138        O  0.38248605  0.18978762  0.87521222    -0.74140
Al139      Al  0.33204564  0.13034923  0.83047406     1.90120
O140        O  0.39093521  0.18644220  0.79940746    -0.73210
O141        O  0.35562143  0.22246840  0.86192693    -0.73060
O142        O  0.36085526  0.21606504  0.78697576    -0.78720
O143        O  0.30713776  0.18920928  0.87494127    -0.76920
O144        O  0.33320488  0.16612015  0.83062774    -1.13060
O145        O  0.27444208  0.13030745  0.85927465    -0.72250
C146        C  0.28120297  0.11313494  0.87775889     0.98470
C147        C  0.38158346  0.16259286  0.78042677     0.94860
Al148      Al  0.36941570  0.20069609  0.83093371     1.55560
O149        O  0.29650432  0.11024943  0.79927502    -0.76870
C150        C  0.33105324  0.21463892  0.88010750     0.99030
C151        C  0.38376445  0.16581291  0.88079255     0.93910
O152        O  0.36775926  0.14279751  0.86118007    -0.82190
O153        O  0.47522799  0.02393175  0.54438900    -0.81650
C154        C  0.04972374  0.99862968  0.44753888     0.97700
O155        O  0.05867489  0.02304098  0.46560348    -0.70770
O156        O  0.02635026  0.05182339  0.45406613    -0.74360
Al157      Al  0.03671516  0.03747351  0.49747438     1.48980
C158        C  0.00343821  0.05585244  0.45191661     0.92960
O159        O  0.45118273  0.47961269  0.45615530    -0.80580
O160        O  0.47988845  0.45353158  0.54335917    -0.74140
Al161      Al  0.46553453  0.00195065  0.50024487     1.90120
O162        O  0.46404631  0.44508205  0.46974934    -0.73210
O163        O  0.03914778  0.48144223  0.52587371    -0.73060
O164        O  0.02308297  0.47624756  0.45257569    -0.78720
O165        O  0.05131375  0.02789987  0.54095206    -0.76920
O166        O  0.00128043  0.00223117  0.49847117    -1.13060
O167        O  0.02231766  0.05901209  0.52922489    -0.72250
C168        C  0.49781078  0.05027037  0.54822278     0.98470
C169        C  0.44785315  0.45352566  0.45173904     0.94860
Al170      Al  0.00150590  0.46711268  0.49794935     1.55560
O171        O  0.47926529  0.03890658  0.47072038    -0.76870
C172        C  0.05486362  0.00512704  0.54478521     0.99030
C173        C  0.45363191  0.45035878  0.54939707     0.93910
O174        O  0.44428283  0.46555608  0.53092967    -0.82190
C175        C  0.43766175  0.14428736  0.73208997    -0.05630
C176        C  0.44196550  0.15932066  0.69817746     0.00290
C177        C  0.42426484  0.17336942  0.68962901    -0.08280
C178        C  0.40463863  0.17418691  0.71714988    -0.05660
C179        C  0.40179093  0.16061232  0.75200039     0.00280
C180        C  0.41765429  0.14452364  0.75909304    -0.08190
C181        C  0.41494734  0.12933569  0.79602483     0.62190
H182        H  0.45132997  0.13355961  0.73786088     0.12880
H183        H  0.39152906  0.18548925  0.71174847     0.12900
C184        C  0.42551733  0.18652204  0.65140916     0.62420
F185        F  0.43313872  0.11582454  0.79769426    -0.22740
F186        F  0.38465805  0.10699042  0.80249929    -0.20070
F187        F  0.42447465  0.15119288  0.82307171    -0.19750
F188        F  0.41872756  0.16439053  0.62520209    -0.19800
F189        F  0.45459071  0.21080793  0.64437747    -0.20120
F190        F  0.40450807  0.19664209  0.64784563    -0.22800
C191        C  0.46952876  0.09824786  0.59741244    -0.05630
C192        C  0.49422840  0.11547402  0.62113033     0.00290
C193        C  0.01864953  0.10875726  0.62348521    -0.08280
C194        C  0.01960316  0.08839845  0.59805410    -0.05660
C195        C  0.49501740  0.07136935  0.57412212     0.00280
C196        C  0.46864538  0.07524906  0.57513208    -0.08190
C197        C  0.43954265  0.05569911  0.55302207     0.62190
H198        H  0.45083992  0.10320006  0.59619020     0.12880
H199        H  0.03915463  0.08467128  0.59811701     0.12900
C200        C  0.04332172  0.12117387  0.65312763     0.62420
F201        F  0.41831620  0.06558955  0.55590336    -0.22740
F202        F  0.42541419  0.02607154  0.56600494    -0.20070
F203        F  0.44651828  0.05626648  0.51611835    -0.19750
F204        F  0.03530145  0.13284583  0.68283643    -0.19800
F205        F  0.07086468  0.14360950  0.63794265    -0.20120
F206        F  0.04767682  0.09797486  0.66682858    -0.22800
C207        C  0.10273812  0.00316971  0.55312472    -0.05630
C208        C  0.07940604  0.00703834  0.56927963     0.00290
C209        C  0.08058351  0.01331017  0.60750042    -0.08280
C210        C  0.10451546  0.01398120  0.62872963    -0.05660
C211        C  0.12730284  0.00915053  0.61270608     0.00280
C212        C  0.12707879  0.00458760  0.57411211    -0.08190
C213        C  0.15281255  0.50210123  0.55500404     0.62190
H214        H  0.10190671  0.49932295  0.52366679     0.12880
H215        H  0.10538816  0.01779508  0.65825636     0.12900
C216        C  0.05621353  0.01833663  0.62587267     0.62420
F217        F  0.15120733  0.50380076  0.51690374    -0.22740
F218        F  0.15090156  0.47464362  0.56402010    -0.20070
F219        F  0.18118038  0.02569683  0.56586402    -0.19750
F220        F  0.02727420  0.49372324  0.61932261    -0.19800
F221        F  0.05774205  0.04450057  0.61170924    -0.20120
F222        F  0.06021115  0.02156992  0.66377917    -0.22800
C223        C  0.24422796  0.06183665  0.70310608    -0.05630
C224        C  0.21403634  0.05712632  0.70453447     0.00290
C225        C  0.20731967  0.07523508  0.72825412    -0.08280
C226        C  0.23123624  0.09716805  0.75008271    -0.05660
C227        C  0.26069348  0.10006477  0.75078821     0.00280
C228        C  0.26761964  0.08254733  0.72638407    -0.08190
C229        C  0.29940987  0.08554767  0.72468585     0.62190
H230        H  0.24892675  0.04789994  0.68465003     0.12880
H231        H  0.22656096  0.11107975  0.76860721     0.12900
C232        C  0.17491653  0.07047120  0.73239460     0.62420
F233        F  0.30216234  0.06968892  0.69533458    -0.22740
F234        F  0.30484903  0.07401052  0.75683045    -0.20070
F235        F  0.32170497  0.11585546  0.72025608    -0.19750
F236        F  0.15394532  0.03996125  0.73859259    -0.19800
F237        F  0.16693631  0.08037597  0.70077315    -0.20120
F238        F  0.17273097  0.08655881  0.76186515    -0.22800
C239        C  0.41524624  0.18726752  0.93783615    -0.05630
C240        C  0.40580316  0.16598240  0.90898873     0.00290
C241        C  0.42150409  0.14930670  0.90527421    -0.08280
C242        C  0.45091401  0.16161845  0.92062240    -0.05660
C243        C  0.45899493  0.18013096  0.95211298     0.00280
C244        C  0.43963147  0.19223323  0.96194517    -0.08190
C245        C  0.44326166  0.20905342  0.99777338     0.62190
H246        H  0.40247370  0.19897319  0.94246970     0.12880
H247        H  0.46499513  0.15186145  0.91251805     0.12900
C248        C  0.40670729  0.11572714  0.89557406     0.62420
F249        F  0.41788492  0.21243733  0.00478292    -0.22740
F250        F  0.46895559  0.23778403  0.99569674    -0.20070
F251        F  0.44602654  0.19297748  0.02727790    -0.19750
F252        F  0.42471224  0.11143478  0.87005324    -0.19800
F253        F  0.37701773  0.10297169  0.88256465    -0.20120
F254        F  0.40549168  0.09965640  0.92733492    -0.22800
C255        C  0.03964889  0.22580584  0.08163654    -0.05630
C256        C  0.04772693  0.22503710  0.04469502     0.00290
C257        C  0.07825019  0.24551412  0.03227080    -0.08280
C258        C  0.10025585  0.26492915  0.05807057    -0.05660
C259        C  0.09237165  0.26468578  0.09530499     0.00280
C260        C  0.06139992  0.24575050  0.10712100    -0.08190
C261        C  0.05146986  0.24660523  0.14654155     0.62190
H262        H  0.01618097  0.21011446  0.09050497     0.12880
H263        H  0.12387000  0.28034922  0.04946739     0.12900
C264        C  0.08760224  0.24659294  0.99215424     0.62420
F265        F  0.02025780  0.22672061  0.15220717    -0.22740
F266        F  0.05729800  0.27565005  0.15440802    -0.20070
F267        F  0.06766399  0.23853935  0.17067883    -0.19750
F268        F  0.06899706  0.25278484  0.96968179    -0.19800
F269        F  0.08448252  0.21895272  0.98259784    -0.20120
F270        F  0.11799248  0.26885564  0.98568945    -0.22800
C271        C  0.18477657  0.41322450  0.27284645    -0.05630
C272        C  0.16602447  0.40519161  0.24149068     0.00290
C273        C  0.14484138  0.41587034  0.23698108    -0.08280
C274        C  0.14317255  0.43442372  0.26439546    -0.05660
C275        C  0.16202247  0.44263852  0.29566140     0.00280
C276        C  0.18275765  0.43142374  0.30056044    -0.08190
C277        C  0.20310332  0.43791238  0.33427638     0.62190
H278        H  0.20066029  0.40464030  0.27609124     0.12880
H279        H  0.12799424  0.44378282  0.26092508     0.12900
C280        C  0.12525570  0.40905541  0.20246849     0.62420
F281        F  0.19986038  0.41087381  0.34806520    -0.22740
F282        F  0.19570939  0.45137932  0.36254991    -0.20070
F283        F  0.23359892  0.45688960  0.32407201    -0.19750
F284        F  0.10425612  0.37824599  0.20084372    -0.19800
F285        F  0.14407365  0.41799097  0.17139224    -0.20120
F286        F  0.10883063  0.42442030  0.20196308    -0.22800
C287        C  0.08677610  0.48016426  0.43924444    -0.05630
C288        C  0.07133130  0.49428432  0.42350049     0.00290
C289        C  0.07485100  0.00113857  0.38517541    -0.08280
C290        C  0.09591274  0.99649953  0.36455499    -0.05660
C291        C  0.11311714  0.48474276  0.38096155     0.00280
C292        C  0.10787456  0.47535616  0.41851056    -0.08190
C293        C  0.12483676  0.46078435  0.43639411     0.62190
H294        H  0.08240569  0.47321925  0.46805266     0.12880
H295        H  0.10045390  0.00363826  0.33575953     0.12900
C296        C  0.05870808  0.01595112  0.36688724     0.62420
F297        F  0.11571400  0.45235945  0.47281712    -0.22740
F298        F  0.15627219  0.48102207  0.43566407    -0.20070
F299        F  0.11878662  0.43491557  0.41725250    -0.19750
F300        F  0.07161503  0.04490398  0.38049740    -0.19800
F301        F  0.02741792  0.99967391  0.37477335    -0.20120
F302        F  0.06251077  0.01800102  0.32881193    -0.22800
C303        C  0.05775160  0.24634168  0.29466058    -0.05630
C304        C  0.05491525  0.21730850  0.29611989     0.00290
C305        C  0.07467934  0.21133126  0.27398203    -0.08280
C306        C  0.09628282  0.23473844  0.25067425    -0.05660
C307        C  0.09794204  0.26323180  0.24778454     0.00280
C308        C  0.07859177  0.26937100  0.27046109    -0.08190
C309        C  0.07980891  0.29994213  0.26944992     0.62190
H310        H  0.04248200  0.25044182  0.31186439     0.12880
H311        H  0.11138659  0.23051963  0.23327998     0.12900
C312        C  0.07231149  0.18022761  0.27352702     0.62420
F313        F  0.06194226  0.30214702  0.29723295    -0.22740
F314        F  0.06878132  0.30383367  0.23598409    -0.20070
F315        F  0.10988895  0.32315696  0.27412551    -0.19750
F316        F  0.04204996  0.15774144  0.26788435    -0.19800
F317        F  0.08250724  0.17482571  0.30670251    -0.20120
F318        F  0.09018620  0.17824001  0.24558394    -0.22800
C319        C  0.49121200  0.09763782  0.44463064    -0.05630
C320        C  0.00560280  0.08221374  0.43002860     0.00290
C321        C  0.02305108  0.09377456  0.39683684    -0.08280
C322        C  0.02352916  0.11849290  0.37833954    -0.05660
C323        C  0.00868957  0.13343090  0.39268760     0.00280
C324        C  0.49340753  0.12371386  0.42747621    -0.08190
C325        C  0.47986777  0.14027835  0.44829679     0.62190
H326        H  0.47940803  0.09028722  0.47089709     0.12880
H327        H  0.03518896  0.12606803  0.35182649     0.12900
C328        C  0.04135146  0.08040527  0.38092510     0.62420
F329        F  0.48928879  0.14385457  0.48478805    -0.22740
F330        F  0.44798385  0.12316740  0.44751590    -0.20070
F331        F  0.48926070  0.16899608  0.43388096    -0.19750
F332        F  0.02225752  0.04934808  0.37754080    -0.19800
F333        F  0.06564240  0.08702231  0.40445033    -0.20120
F334        F  0.05357769  0.09230823  0.34628733    -0.22800
C335        C  0.19678839  0.45403996  0.05130409    -0.05630
C336        C  0.16796314  0.44721563  0.03662775     0.00290
C337        C  0.14179689  0.41829486  0.04557563    -0.08280
C338        C  0.14493999  0.39943526  0.07180708    -0.05660
C339        C  0.17351553  0.40654186  0.08699247     0.00280
C340        C  0.20028667  0.43391183  0.07547324    -0.08190
C341        C  0.23231826  0.44260694  0.08927174     0.62190
H342        H  0.21668071  0.47592010  0.04460163     0.12880
H343        H  0.12461130  0.37824892  0.08001124     0.12900
C344        C  0.11027154  0.40559689  0.02790623     0.62420
F345        F  0.25466127  0.47077356  0.07569732    -0.22740
F346        F  0.24009768  0.42133323  0.07772637    -0.20070
F347        F  0.23291616  0.44389511  0.12747614    -0.19750
F348        F  0.11216740  0.41876380  0.99378517    -0.19800
F349        F  0.09080575  0.41005185  0.05100414    -0.20120
F350        F  0.09733706  0.37460389  0.02233051    -0.22800
C351        C  0.26763992  0.08039120  0.93457486    -0.05630
C352        C  0.25764020  0.08841939  0.90216802     0.00290
C353        C  0.22592215  0.07122937  0.89254930    -0.08280
C354        C  0.20584801  0.04647538  0.91522150    -0.05660
C355        C  0.21534632  0.03930354  0.94855953     0.00280
C356        C  0.24698015  0.05660779  0.95853789    -0.08190
C357        C  0.25911723  0.05080745  0.99443075     0.62190
H358        H  0.29192019  0.09334557  0.94134799     0.12880
H359        H  0.18180813  0.03290248  0.90768824     0.12900
C360        C  0.21293759  0.07830149  0.85828069     0.62420
F361        F  0.28887664  0.07384304  0.00161122    -0.22740
F362        F  0.25972774  0.02391235  0.99218738    -0.20070
F363        F  0.24062518  0.04914758  0.02389813    -0.19750
F364        F  0.22871164  0.07739515  0.82744797    -0.19800
F365        F  0.21574747  0.10678163  0.86119050    -0.20120
F366        F  0.18194240  0.05751139  0.85330490    -0.22800
C367        C  0.37096920  0.39852821  0.40823920    -0.05630
C368        C  0.38070676  0.38815005  0.37813552     0.00290
C369        C  0.41277737  0.40137583  0.37045000    -0.08280
C370        C  0.43399390  0.42246588  0.39542968    -0.05660
C371        C  0.42421984  0.43219590  0.42607104     0.00280
C372        C  0.39222819  0.42064480  0.43230622    -0.08190
C373        C  0.38046164  0.43040646  0.46520060     0.62190
H374        H  0.34640825  0.38830293  0.41345527     0.12880
H375        H  0.45854881  0.43191614  0.39056485     0.12900
C376        C  0.42600369  0.39487973  0.33618832     0.62420
F377        F  0.34852055  0.41552955  0.46662851    -0.22740
F378        F  0.39107374  0.46132936  0.46296099    -0.20070
F379        F  0.39065261  0.42375690  0.49759261    -0.19750
F380        F  0.44634459  0.42213102  0.31878110    -0.19800
F381        F  0.40376381  0.37728516  0.31072663    -0.20120
F382        F  0.44197380  0.38023965  0.34652406    -0.22800
C383        C  0.25692099  0.32299482  0.30399132    -0.05630
C384        C  0.28839946  0.34123870  0.29488611     0.00290
C385        C  0.29710193  0.35915176  0.26201612    -0.08280
C386        C  0.27381333  0.35877394  0.23996375    -0.05660
C387        C  0.24245608  0.33897517  0.24756905     0.00280
C388        C  0.23363446  0.32137108  0.28055703    -0.08190
C389        C  0.19989603  0.30174862  0.29124846     0.62190
H390        H  0.25075241  0.30939442  0.32919364     0.12880
H391        H  0.27995779  0.37331725  0.21574407     0.12900
C392        C  0.33052404  0.37696334  0.24885919     0.62420
F393        F  0.19635557  0.28901166  0.32624812    -0.22740
F394        F  0.18526990  0.27837464  0.26632153    -0.20070
F395        F  0.18576739  0.31930385  0.29107508    -0.19750
F396        F  0.34293796  0.35791873  0.24773718    -0.19800
F397        F  0.34769299  0.40074162  0.27244141    -0.20120
F398        F  0.33306790  0.38913919  0.21369802    -0.22800
C399        C  0.40213425  0.40902413  0.63238641    -0.05630
C400        C  0.38987856  0.37855541  0.62189837     0.00290
C401        C  0.39974746  0.37178592  0.58839597    -0.08280
C402        C  0.42154061  0.39604578  0.56616953    -0.05660
C403        C  0.43268810  0.42651325  0.57587806     0.00280
C404        C  0.42331409  0.43324568  0.60969791    -0.08190
C405        C  0.43502550  0.46581855  0.62117494     0.62190
H406        H  0.39381793  0.41367388  0.65781748     0.12880
H407        H  0.42918999  0.39145799  0.54018864     0.12900
C408        C  0.38625197  0.33920110  0.57549147     0.62420
F409        F  0.42496335  0.46751296  0.65631295    -0.22740
F410        F  0.42436107  0.47940551  0.59664820    -0.20070
F411        F  0.46693308  0.48171671  0.62090476    -0.19750
F412        F  0.35454427  0.32586056  0.57234655    -0.19800
F413        F  0.39303815  0.32272929  0.60071543    -0.20120
F414        F  0.39806630  0.33772297  0.54139855    -0.22800
C415        C  0.33632307  0.26260708  0.69638891    -0.05630
C416        C  0.34108456  0.28986077  0.71204633     0.00290
C417        C  0.34566170  0.29414527  0.75067522    -0.08280
C418        C  0.34488896  0.27063805  0.77256446    -0.05660
C419        C  0.33969132  0.24327832  0.75698898     0.00280
C420        C  0.33538153  0.23901740  0.71842321    -0.08190
C421        C  0.32910752  0.20938859  0.70107471     0.62190
H422        H  0.33269494  0.25973662  0.66682029     0.12880
H423        H  0.34791844  0.27323134  0.80225144     0.12900
C424        C  0.35098704  0.32327897  0.76865345     0.62420
F425        F  0.32530940  0.20962051  0.66316630    -0.22740
F426        F  0.30249575  0.18548856  0.71624635    -0.20070
F427        F  0.35358804  0.20463694  0.70781994    -0.19750
F428        F  0.32511652  0.32619323  0.76438370    -0.19800
F429        F  0.37611329  0.34804247  0.75225157    -0.20120
F430        F  0.35672203  0.32352891  0.80615640    -0.22800
C431        C  0.34211436  0.26692185  0.96064672    -0.05630
C432        C  0.32575497  0.28112515  0.94799643     0.00290
C433        C  0.31112309  0.27324715  0.91316513    -0.08280
C434        C  0.31271196  0.25069400  0.89240116    -0.05660
C435        C  0.32930063  0.23675026  0.90487715     0.00280
C436        C  0.34442840  0.24498363  0.93933606    -0.08190
C437        C  0.36318043  0.23089170  0.95302436     0.62190
H438        H  0.35363652  0.27368920  0.98708827     0.12880
H439        H  0.30165593  0.24428595  0.86565307     0.12900
C440        C  0.29476280  0.28928482  0.89764877     0.62420
F441        F  0.37444386  0.24041906  0.98826856    -0.22740
F442        F  0.38799951  0.23926475  0.92942984    -0.20070
F443        F  0.34501652  0.19948120  0.95383988    -0.19750
F444        F  0.31511170  0.32031205  0.89554714    -0.19800
F445        F  0.27025251  0.28378256  0.92040362    -0.20120
F446        F  0.28341729  0.27932520  0.86253615    -0.22800
C447        C  0.28590762  0.32288528  0.08187667    -0.05630
C448        C  0.27838367  0.31781091  0.04429386     0.00290
C449        C  0.25025916  0.31534351  0.03194810    -0.08280
C450        C  0.23087740  0.31843178  0.05795941    -0.05660
C451        C  0.23969317  0.32569414  0.09498333     0.00280
C452        C  0.26771498  0.32800189  0.10712905    -0.08190
C453        C  0.27907534  0.33697222  0.14623713     0.62190
H454        H  0.30755976  0.32493983  0.09075298     0.12880
H455        H  0.20909857  0.31620168  0.04934887     0.12900
C456        C  0.24114660  0.31044306  0.99152443     0.62420
F457        F  0.30618964  0.33661419  0.15281074    -0.22740
F458        F  0.25706203  0.31697635  0.17102410    -0.20070
F459        F  0.28477865  0.36623003  0.15196069    -0.19750
F460        F  0.23539586  0.28194094  0.98111468    -0.19800
F461        F  0.26461953  0.33245239  0.96972309    -0.20120
F462        F  0.21470612  0.31207422  0.98502145    -0.22800
C463        C  0.35118212  0.24548512  0.32080355    -0.05630
C464        C  0.32783229  0.22103828  0.34122110     0.00290
C465        C  0.30711311  0.22592719  0.36311488    -0.08280
C466        C  0.30957635  0.25482382  0.36184829    -0.05660
C467        C  0.33314373  0.27913975  0.34167430     0.00280
C468        C  0.35459350  0.27464243  0.32113518    -0.08190
C469        C  0.38084902  0.30036338  0.29942969     0.62190
H470        H  0.36677537  0.24144261  0.30412257     0.12880
H471        H  0.29320180  0.25868966  0.37717684     0.12900
C472        C  0.28236280  0.20168681  0.38801655     0.62420
F473        F  0.39698083  0.29020299  0.27831505    -0.22740
F474        F  0.40137549  0.32163001  0.32372035    -0.20070
F475        F  0.36948468  0.31405853  0.27584850    -0.19750
F476        F  0.28965354  0.17981210  0.39899425    -0.19800
F477        F  0.25452264  0.18790241  0.36954439    -0.20120
F478        F  0.27894308  0.21475388  0.41981528    -0.22800
C479        C  0.41132942  0.19148063  0.32060197    -0.05630
C480        C  0.38434327  0.16376634  0.32887121     0.00290
C481        C  0.38720962  0.13778959  0.33746198    -0.08280
C482        C  0.41611285  0.13995982  0.33274423    -0.05660
C483        C  0.44325619  0.16818570  0.32777583     0.00280
C484        C  0.44081171  0.19486253  0.32369426    -0.08190
C485        C  0.46822978  0.22714713  0.32550244     0.62190
H486        H  0.40954114  0.21125455  0.31298208     0.12880
H487        H  0.41776183  0.11953143  0.33597483     0.12900
C488        C  0.36180516  0.10845090  0.35492877     0.62420
F489        F  0.45889959  0.24760889  0.33578712    -0.22740
F490        F  0.48241871  0.23628111  0.29125120    -0.20070
F491        F  0.48925396  0.22896298  0.35165072    -0.19750
F492        F  0.34684957  0.08696976  0.32787880    -0.19800
F493        F  0.34078404  0.11317589  0.37440477    -0.20120
F494        F  0.37428949  0.09677272  0.38000787    -0.22800
C495        C  0.26649345  0.09182389  0.35261041    -0.05630
C496        C  0.27050968  0.10885351  0.32015991     0.00290
C497        C  0.24828611  0.09702637  0.29185136    -0.08280
C498        C  0.22206969  0.06811009  0.29739715    -0.05660
C499        C  0.21818839  0.05116681  0.32998621     0.00280
C500        C  0.24084272  0.06279612  0.35782404    -0.08190
C501        C  0.23829136  0.04428840  0.39234638     0.62190
H502        H  0.28389071  0.10153324  0.37388698     0.12880
H503        H  0.20448541  0.05836732  0.27631232     0.12900
C504        C  0.25273719  0.11456723  0.25597879     0.62420
F505        F  0.26403435  0.05916470  0.41458181    -0.22740
F506        F  0.23547326  0.01672898  0.38239086    -0.20070
F507        F  0.21272461  0.03898715  0.41293702    -0.19750
F508        F  0.28029881  0.12080877  0.23943591    -0.19800
F509        F  0.25342287  0.14165822  0.26303816    -0.20120
F510        F  0.22911829  0.09826033  0.23130345    -0.22800
C511        C  0.25729732  0.31492759  0.63535281    -0.05630
C512        C  0.28047275  0.33516385  0.65904427     0.00290
C513        C  0.27629132  0.35674438  0.67890474    -0.08280
C514        C  0.24796544  0.35607810  0.67598894    -0.05660
C515        C  0.22428331  0.33539234  0.65290635     0.00280
C516        C  0.22960990  0.31541837  0.63076140    -0.08190
C517        C  0.20754573  0.29490216  0.60141210     0.62190
H518        H  0.26127896  0.29913732  0.61948782     0.12880
H519        H  0.24372365  0.37120213  0.69280090     0.12900
C520        C  0.30139618  0.37995024  0.70363162     0.62420
F521        F  0.22381018  0.29786802  0.56913876    -0.22740
F522        F  0.18494478  0.30206543  0.59282764    -0.20070
F523        F  0.19369462  0.26492841  0.61351418    -0.19750
F524        F  0.32723909  0.39893398  0.68265276    -0.19800
F525        F  0.30923269  0.36516168  0.73008335    -0.20120
F526        F  0.29198957  0.39793971  0.72171179    -0.22800
C527        C  0.19208898  0.41619892  0.67774424    -0.05630
C528        C  0.16361461  0.38888399  0.67400861     0.00290
C529        C  0.13632204  0.39144044  0.67080852    -0.08280
C530        C  0.13903687  0.42031193  0.67419204    -0.05660
C531        C  0.16765893  0.44720374  0.67375804     0.00280
C532        C  0.19489611  0.44507973  0.67371533    -0.08190
C533        C  0.22692609  0.47228078  0.66650320     0.62190
H534        H  0.21295899  0.41529029  0.68248877     0.12880
H535        H  0.11836386  0.42217393  0.67488815     0.12900
C536        C  0.10442573  0.36556985  0.66085010     0.62420
F537        F  0.24688405  0.46302169  0.65308768    -0.22740
F538        F  0.23913312  0.98787132  0.69888730    -0.20070
F539        F  0.22578797  0.49169248  0.64013458    -0.19750
F540        F  0.08886213  0.34934778  0.69228998    -0.19800
F541        F  0.10672606  0.34685062  0.63521522    -0.20120
F542        F  0.08660170  0.37644362  0.64472495    -0.22800
C543        C  0.08860674  0.27526783  0.65026674    -0.05630
C544        C  0.11030623  0.27510995  0.67474649     0.00290
C545        C  0.10320469  0.24786477  0.69409110    -0.08280
C546        C  0.07439759  0.22174320  0.68784052    -0.05660
C547        C  0.05238937  0.22263069  0.66452042     0.00280
C548        C  0.05939062  0.24981276  0.64556480    -0.08190
C549        C  0.03610224  0.25227475  0.62100886     0.62190
H550        H  0.09485637  0.29568933  0.63446090     0.12880
H551        H  0.06872318  0.20041864  0.70153611     0.12900
C552        C  0.12550376  0.24535449  0.72037212     0.62420
F553        F  0.04930861  0.27936567  0.60097981    -0.22740
F554        F  0.01296536  0.25129470  0.64287313    -0.20070
F555        F  0.02353636  0.22859069  0.59616525    -0.19750
F556        F  0.14411287  0.27261284  0.73791055    -0.19800
F557        F  0.14375673  0.23684755  0.70085826    -0.20120
F558        F  0.10960347  0.22353873  0.74755522    -0.22800
C559        C  0.38494788  0.41187334  0.01163982    -0.05630
C560        C  0.38655914  0.38583470  0.00173417     0.00290
C561        C  0.41629224  0.38868999  0.99916117    -0.08280
C562        C  0.44240157  0.41799327  0.00003040    -0.05660
C563        C  0.44085517  0.44374807  0.01171475     0.00280
C564        C  0.41127358  0.43926950  0.02144209    -0.08190
C565        C  0.40570329  0.46061669  0.04525759     0.62190
H566        H  0.36269542  0.41044945  0.01451708     0.12880
H567        H  0.46431469  0.42021986  0.99215413     0.12900
C568        C  0.42194357  0.36184015  0.99806227     0.62420
F569        F  0.38415687  0.44392114  0.07252958    -0.22740
F570        F  0.39405109  0.47522376  0.02374752    -0.20070
F571        F  0.43208061  0.48182826  0.06309116    -0.19750
F572        F  0.42434601  0.35482083  0.96181065    -0.19800
F573        F  0.39876936  0.33654636  0.01620196    -0.20120
F574        F  0.44927035  0.36902675  0.01580261    -0.22800
C575        C  0.47295319  0.08973584  0.99621790    -0.05630
C576        C  0.00107985  0.11664698  0.00339240     0.00290
C577        C  0.02851448  0.11469214  0.00316974    -0.08280
C578        C  0.02571913  0.08577488  0.00261587    -0.05660
C579        C  0.99813618  0.05947021  0.99229872     0.00280
C580        C  0.47230077  0.06307579  0.98454635    -0.08190
C581        C  0.44586338  0.04247989  0.95943887     0.62190
H582        H  0.45151108  0.09013184  0.99550721     0.12880
H583        H  0.04600984  0.08445892  0.00934825     0.12900
C584        C  0.06075497  0.14208102  0.99853187     0.62420
F585        F  0.44145130  0.06011250  0.93329535    -0.22740
F586        F  0.41897958  0.02651695  0.97994004    -0.20070
F587        F  0.45179881  0.02246777  0.94020592    -0.19750
F588        F  0.07178593  0.15665580  0.03174250    -0.19800
F589        F  0.06021558  0.16189691  0.97244152    -0.20120
F590        F  0.08148238  0.13355104  0.98579183    -0.22800
C591        C  0.06135387  0.48880432  0.97486694    -0.05630
C592        C  0.05574801  0.00344234  0.00388960     0.00290
C593        C  0.07820112  0.01817373  0.03162234    -0.08280
C594        C  0.10530581  0.01625383  0.03032489    -0.05660
C595        C  0.11083624  0.00144318  0.00130603     0.00280
C596        C  0.08905316  0.48825533  0.97243661    -0.08190
C597        C  0.09515037  0.47417471  0.93886748     0.62190
H598        H  0.04395534  0.47831848  0.95367646     0.12880
H599        H  0.12267948  0.02675770  0.05152003     0.12900
C600        C  0.07365257  0.03604971  0.06199979     0.62420
F601        F  0.07031378  0.46174492  0.91497044    -0.22740
F602        F  0.10074183  0.45126533  0.94983367    -0.20070
F603        F  0.12050750  0.49615863  0.91952664    -0.19750
F604        F  0.04603997  0.01782155  0.08039274    -0.19800
F605        F  0.07322311  0.06094617  0.04671761    -0.20120
F606        F  0.09720933  0.04664968  0.08764459    -0.22800
C607        C  0.99710065  0.52919845  0.99369237     0.03280
C608        C  0.02474288  0.52833813  0.99147581    -0.12870
C609        C  0.02606201  0.50294691  0.00392969     0.00780
C610        C  0.49896900  0.97636850  0.01398367    -0.11400
C611        C  0.47000066  0.97442714  0.01020458     0.03270
C612        C  0.46963761  0.00152513  0.00148030    -0.10820
H613        H  0.04583418  0.54771411  0.98125009     0.08860
H614        H  0.50074117  0.95698523  0.02353431     0.06390
H615        H  0.44799453  0.00103143  0.00081234     0.06240
C616        C  0.16465791  0.85950117  0.67145771     0.03280
C617        C  0.14015157  0.83121720  0.68349792    -0.12870
C618        C  0.14017096  0.80394960  0.67690050     0.00780
C619        C  0.16748195  0.80515178  0.66564004    -0.11400
C620        C  0.19363060  0.83319093  0.65720259     0.03270
C621        C  0.19126831  0.85972257  0.65739565    -0.10820
H622        H  0.12008256  0.82954482  0.69673109     0.08860
H623        H  0.16825578  0.78434631  0.66282189     0.06390
H624        H  0.21086197  0.88053968  0.64717608     0.06240
C625        C  0.35437656  0.66368139  0.32849100     0.03280
C626        C  0.32721983  0.63882493  0.31528215    -0.12870
C627        C  0.29909067  0.63849469  0.31751414     0.00780
C628        C  0.29873543  0.66513538  0.32637879    -0.11400
C629        C  0.32605903  0.69109359  0.33706245     0.03270
C630        C  0.35312577  0.68940003  0.34041296    -0.10820
H631        H  0.32724839  0.61879377  0.30548387     0.08860
H632        H  0.27718071  0.66528160  0.32600522     0.06390
H633        H  0.37351709  0.70881698  0.35140169     0.06240
C634        C  0.32630983  0.80553647  0.97094333     0.03280
C635        C  0.35312376  0.83439166  0.97115555    -0.12870
C636        C  0.35684809  0.85623971  0.99747768     0.00780
C637        C  0.33169297  0.84969642  0.02069172    -0.11400
C638        C  0.30369145  0.82214496  0.01868900     0.03270
C639        C  0.30151661  0.79946309  0.99477524    -0.10820
H640        H  0.37134256  0.83922040  0.95151554     0.08860
H641        H  0.33384654  0.86593150  0.04137093     0.06390
H642        H  0.28114761  0.77707180  0.99528499     0.06240
C643        C  0.33942537  0.81269091  0.68758031     0.03280
C644        C  0.31140598  0.81268551  0.68435599    -0.12870
C645        C  0.30938336  0.83407588  0.66137640     0.00780
C646        C  0.33505962  0.85475957  0.64057560    -0.11400
C647        C  0.36315057  0.85507099  0.64335226     0.03270
C648        C  0.36539832  0.83406113  0.66707873    -0.10820
H649        H  0.29134359  0.79635400  0.70011970     0.08860
H650        H  0.33328336  0.87100125  0.62243467     0.06390
H651        H  0.38717969  0.83446759  0.66982515     0.06240
C652        C  0.31137441  0.83880821  0.31837020     0.03280
C653        C  0.31121183  0.81108204  0.32021484    -0.12870
C654        C  0.33351855  0.80844853  0.34075509     0.00780
C655        C  0.35606234  0.83368054  0.35982724    -0.11400
C656        C  0.35671530  0.86167309  0.35788707     0.03270
C657        C  0.33372324  0.86387728  0.33808168    -0.10820
H658        H  0.29405074  0.79165509  0.30502709     0.08860
H659        H  0.37307827  0.83157981  0.37618960     0.06390
H660        H  0.33345032  0.88511827  0.33776040     0.06240
C661        C  0.16618362  0.97192365  0.01516832     0.03280
C662        C  0.14162943  0.97749605  0.02131452    -0.12870
C663        C  0.13970390  0.00024865  0.00137611     0.00780
C664        C  0.16465195  0.52094746  0.97984926    -0.11400
C665        C  0.19025802  0.51707170  0.97395274     0.03270
C666        C  0.19003547  0.49146151  0.99022635    -0.10820
H667        H  0.12348229  0.96379558  0.04088808     0.08860
H668        H  0.16352673  0.53966275  0.96657820     0.06390
H669        H  0.20801740  0.48644287  0.98331636     0.06240
C670        C  0.00628820  0.65563347  0.36762777     0.03280
C671        C  0.47720108  0.65203267  0.35998800    -0.12870
C672        C  0.47338271  0.66914177  0.33185035     0.00780
C673        C  0.99858725  0.68754192  0.30880467    -0.11400
C674        C  0.02834302  0.69328678  0.31753166     0.03270
C675        C  0.03216828  0.67772672  0.34761808    -0.10820
H676        H  0.45751453  0.63586081  0.37626323     0.08860
H677        H  0.99538538  0.69833136  0.28462385     0.06390
H678        H  0.05498630  0.68237255  0.35532454     0.06240
C679        C  0.16334451  0.96726152  0.31833100     0.03280
C680        C  0.18943278  0.99628224  0.31505243    -0.12870
C681        C  0.19071434  0.52081351  0.33377066     0.00780
C682        C  0.16582631  0.51645921  0.35582014    -0.11400
C683        C  0.13961437  0.98751810  0.35956702     0.03270
C684        C  0.13812969  0.96287994  0.34028446    -0.10820
H685        H  0.20864376  0.99984044  0.29757402     0.08860
H686        H  0.16672328  0.53570677  0.36983651     0.06390
H687        H  0.11746008  0.94069520  0.34185677     0.06240
O688        O  0.12003585  0.81200218  0.12455971    -0.81650
C689        C  0.22005422  0.83714751  0.21964160     0.97700
O690        O  0.20422429  0.81284020  0.20175761    -0.70770
O691        O  0.14512928  0.78663257  0.21464806    -0.74360
Al692      Al  0.16840236  0.79879448  0.17044715     1.48980
C693        C  0.11953256  0.78512526  0.21980212     0.92960
O694        O  0.14430699  0.85867953  0.21061695    -0.80580
O695        O  0.19649674  0.88222720  0.12143902    -0.74140
Al696      Al  0.13438155  0.83539945  0.16770210     1.90120
O697        O  0.19198565  0.89253398  0.19571821    -0.73210
O698        O  0.22727785  0.85356755  0.13806151    -0.73060
O699        O  0.21896006  0.86083561  0.21185681    -0.78720
O700        O  0.19189055  0.80650363  0.12637948    -0.76920
O701        O  0.16949453  0.83446351  0.16823311    -1.13060
O702        O  0.13175513  0.77699581  0.14013005    -0.72250
C703        C  0.11631001  0.78573717  0.12095306     0.98470
C704        C  0.16773936  0.88439340  0.21474217     0.94860
Al705      Al  0.20560871  0.86928832  0.16681509     1.55560
O706        O  0.11153588  0.80041212  0.19953470    -0.76870
C707        C  0.21845132  0.82896118  0.12082883     0.99030
C708        C  0.17335325  0.88541871  0.11615672     0.93910
O709        O  0.14937336  0.87067233  0.13600413    -0.82190
C710        C  0.48227311  0.67885360  0.97744579     0.03280
C711        C  0.48101513  0.65059193  0.98156298    -0.12870
C712        C  0.00118059  0.64638352  0.00441962     0.00780
C713        C  0.02126305  0.67074003  0.02667143    -0.11400
C714        C  0.02479093  0.69985516  0.02158563     0.03270
C715        C  0.00555112  0.70401185  0.99649463    -0.10820
H716        H  0.46414418  0.63149466  0.96606284     0.08860
H717        H  0.03422531  0.66730279  0.04811101     0.06360
H718        H  0.00885195  0.72653426  0.99218417     0.06240
C719        C  0.14994911  0.50751109  0.63762032     0.03280
C720        C  0.14842882  0.97946831  0.64387352    -0.12870
C721        C  0.16778064  0.97659502  0.66978199     0.00780
C722        C  0.18690457  0.50173318  0.69149176    -0.11400
C723        C  0.18993452  0.53042470  0.68437320     0.03270
C724        C  0.17161510  0.53326061  0.65689769    -0.10820
H725        H  0.13203091  0.95981503  0.62844523     0.08860
H726        H  0.19994805  0.49922586  0.71370881     0.06390
H727        H  0.17426944  0.55526312  0.65009099     0.06240
C728        C  0.49455175  0.64153449  0.64044936     0.03280
C729        C  0.02156106  0.67015427  0.64044800    -0.12870
C730        C  0.02265065  0.69441365  0.65983042     0.00780
C731        C  0.49602222  0.69094271  0.67704246    -0.11400
C732        C  0.46823046  0.66328360  0.67519666     0.03270
C733        C  0.46772693  0.63834921  0.65776991    -0.10820
H734        H  0.04213061  0.67341494  0.62630995     0.08860
H735        H  0.49720815  0.70938357  0.69323880     0.06390
H736        H  0.44672438  0.61639799  0.65860110     0.06240
O737        O  0.30767203  0.61604492  0.87441146    -0.81650
C738        C  0.33770601  0.71938400  0.78240596     0.97700
O739        O  0.31335060  0.70389550  0.80122382    -0.70770
O740        O  0.28499786  0.64559079  0.78529034    -0.74360
Al741      Al  0.29801908  0.66712735  0.83028325     1.48980
C742        C  0.28248299  0.61998998  0.77926548     0.92960
O743        O  0.35562240  0.63961297  0.78663523    -0.80580
O744        O  0.38248607  0.68978763  0.87521219    -0.74140
Al745      Al  0.33204563  0.63034922  0.83047406     1.90120
O746        O  0.39093519  0.68644219  0.79940742    -0.73210
O747        O  0.35562144  0.72246840  0.86192692    -0.73060
O748        O  0.36085524  0.71606503  0.78697574    -0.78720
O749        O  0.30713777  0.68920929  0.87494128    -0.76920
O750        O  0.33320488  0.66612015  0.83062774    -1.13060
O751        O  0.27444207  0.63030746  0.85927467    -0.72250
C752        C  0.28120296  0.61313495  0.87775891     0.98470
C753        C  0.38158343  0.66259284  0.78042674     0.94860
Al754      Al  0.36941570  0.70069609  0.83093368     1.55560
O755        O  0.29650430  0.61024943  0.79927503    -0.76870
C756        C  0.33105325  0.71463893  0.88010750     0.99030
C757        C  0.38376445  0.66581291  0.88079253     0.93910
O758        O  0.36775924  0.64279750  0.86118007    -0.82190
O759        O  0.47522799  0.52393175  0.54438900    -0.81650
C760        C  0.04972374  0.49862968  0.44753888     0.97700
O761        O  0.05867489  0.52304098  0.46560348    -0.70770
O762        O  0.02635026  0.55182339  0.45406613    -0.74360
Al763      Al  0.03671516  0.53747351  0.49747438     1.48980
C764        C  0.00343821  0.55585244  0.45191661     0.92960
O765        O  0.45118274  0.97961269  0.45615530    -0.80580
O766        O  0.47988845  0.95353158  0.54335917    -0.74140
Al767      Al  0.46553453  0.50195065  0.50024487     1.90120
O768        O  0.46404632  0.94508205  0.46974934    -0.73210
O769        O  0.03914778  0.98144223  0.52587371    -0.73060
O770        O  0.02308297  0.97624756  0.45257570    -0.78720
O771        O  0.05131374  0.52789987  0.54095207    -0.76920
O772        O  0.00128043  0.50223117  0.49847118    -1.13060
O773        O  0.02231766  0.55901209  0.52922489    -0.72250
C774        C  0.49781078  0.55027037  0.54822278     0.98470
C775        C  0.44785315  0.95352566  0.45173904     0.94860
Al776      Al  0.00150591  0.96711268  0.49794935     1.55560
O777        O  0.47926529  0.53890658  0.47072038    -0.76870
C778        C  0.05486361  0.50512703  0.54478521     0.99030
C779        C  0.45363191  0.95035878  0.54939707     0.93910
O780        O  0.44428283  0.96555608  0.53092967    -0.82190
C781        C  0.43766168  0.64428730  0.73208992    -0.05630
C782        C  0.44196548  0.65932065  0.69817744     0.00290
C783        C  0.42426485  0.67336944  0.68962900    -0.08280
C784        C  0.40463863  0.67418693  0.71714987    -0.05660
C785        C  0.40179089  0.66061229  0.75200035     0.00280
C786        C  0.41765421  0.64452357  0.75909298    -0.08190
C787        C  0.41494723  0.62933558  0.79602474     0.62190
H788        H  0.45132987  0.63355952  0.73786081     0.12880
H789        H  0.39152909  0.68548930  0.71174848     0.12900
C790        C  0.42551736  0.68652210  0.65140916     0.62420
F791        F  0.43313858  0.61582440  0.79769417    -0.22740
F792        F  0.38465792  0.60699032  0.80249917    -0.20070
F793        F  0.42447453  0.65119275  0.82307165    -0.19750
F794        F  0.41872757  0.66439059  0.62520207    -0.19800
F795        F  0.45459074  0.71080797  0.64437749    -0.20120
F796        F  0.40450812  0.69664217  0.64784564    -0.22800
C797        C  0.46952877  0.59824786  0.59741244    -0.05630
C798        C  0.49422840  0.61547402  0.62113033     0.00290
C799        C  0.01864952  0.60875726  0.62348521    -0.08280
C800        C  0.01960316  0.58839845  0.59805411    -0.05660
C801        C  0.49501740  0.57136935  0.57412213     0.00280
C802        C  0.46864539  0.57524907  0.57513208    -0.08190
C803        C  0.43954266  0.55569912  0.55302207     0.62190
H804        H  0.45083993  0.60320006  0.59619019     0.12880
H805        H  0.03915462  0.58467127  0.59811702     0.12900
C806        C  0.04332171  0.62117386  0.65312765     0.62420
F807        F  0.41831620  0.56558956  0.55590336    -0.22740
F808        F  0.42541419  0.52607154  0.56600494    -0.20070
F809        F  0.44651829  0.55626648  0.51611835    -0.19750
F810        F  0.03530143  0.63284582  0.68283645    -0.19800
F811        F  0.07086467  0.64360949  0.63794268    -0.20120
F812        F  0.04767680  0.59797484  0.66682859    -0.22800
C813        C  0.10273812  0.50316972  0.55312472    -0.05630
C814        C  0.07940604  0.50703833  0.56927963     0.00290
C815        C  0.08058349  0.51331014  0.60750043    -0.08280
C816        C  0.10451545  0.51398118  0.62872963    -0.05660
C817        C  0.12730284  0.50915053  0.61270608     0.00280
C818        C  0.12707880  0.50458761  0.57411211    -0.08190
C819        C  0.15281254  0.00210120  0.55500404     0.62190
H820        H  0.10190669  0.99932292  0.52366680     0.12880
H821        H  0.10538813  0.51779504  0.65825637     0.12900
C822        C  0.05621350  0.51833658  0.62587268     0.62420
F823        F  0.15120731  0.00380073  0.51690374    -0.22740
F824        F  0.15090153  0.97464358  0.56402010    -0.20070
F825        F  0.18118039  0.52569687  0.56586402    -0.19750
F826        F  0.02727422  0.99372330  0.61932261    -0.19800
F827        F  0.05774200  0.54450052  0.61170927    -0.20120
F828        F  0.06021111  0.52156986  0.66377918    -0.22800
C829        C  0.24422795  0.56183666  0.70310608    -0.05630
C830        C  0.21403633  0.55712632  0.70453447     0.00290
C831        C  0.20731965  0.57523508  0.72825413    -0.08280
C832        C  0.23123622  0.59716805  0.75008272    -0.05660
C833        C  0.26069346  0.60006477  0.75078822     0.00280
C834        C  0.26761963  0.58254734  0.72638407    -0.08190
C835        C  0.29940987  0.58554769  0.72468584     0.62190
H836        H  0.24892675  0.54789995  0.68465003     0.12880
H837        H  0.22656094  0.61107974  0.76860722     0.12900
C838        C  0.17491651  0.57047118  0.73239462     0.62420
F839        F  0.30216234  0.56968895  0.69533457    -0.22740
F840        F  0.30484903  0.57401054  0.75683044    -0.20070
F841        F  0.32170496  0.61585549  0.72025608    -0.19750
F842        F  0.15394531  0.53996123  0.73859260    -0.19800
F843        F  0.16693629  0.58037595  0.70077317    -0.20120
F844        F  0.17273095  0.58655879  0.76186517    -0.22800
C845        C  0.41524621  0.68726748  0.93783616    -0.05630
C846        C  0.40580317  0.66598240  0.90898870     0.00290
C847        C  0.42150416  0.64930676  0.90527414    -0.08280
C848        C  0.45091407  0.66161854  0.92062234    -0.05660
C849        C  0.45899494  0.68013099  0.95211295     0.00280
C850        C  0.43963144  0.69223321  0.96194518    -0.08190
C851        C  0.44326158  0.70905334  0.99777342     0.62190
H852        H  0.40247362  0.69897311  0.94246974     0.12880
H853        H  0.46499523  0.65186157  0.91251799     0.12900
C854        C  0.40670740  0.61572720  0.89557397     0.62420
F855        F  0.41788482  0.71243721  0.00478297    -0.22740
F856        F  0.46895550  0.73778397  0.99569686    -0.20070
F857        F  0.44602646  0.69297736  0.02727791    -0.19750
F858        F  0.42471242  0.61143487  0.87005322    -0.19800
F859        F  0.37701787  0.60297174  0.88256446    -0.20120
F860        F  0.40549174  0.59965646  0.92733485    -0.22800
C861        C  0.03964889  0.72580582  0.08163657    -0.05630
C862        C  0.04772691  0.72503712  0.04469504     0.00290
C863        C  0.07825016  0.74551417  0.03227080    -0.08280
C864        C  0.10025582  0.76492919  0.05807057    -0.05660
C865        C  0.09237165  0.76468578  0.09530501     0.00280
C866        C  0.06139993  0.74575048  0.10712103    -0.08190
C867        C  0.05146988  0.74660518  0.14654160     0.62190
H868        H  0.01618098  0.71011442  0.09050502     0.12880
H869        H  0.12386997  0.78034929  0.04946737     0.12900
C870        C  0.08760218  0.74659304  0.99215422     0.62420
F871        F  0.02025783  0.72672054  0.15220723    -0.22740
F872        F  0.05729800  0.77564999  0.15440810    -0.20070
F873        F  0.06766403  0.73853931  0.17067884    -0.19750
F874        F  0.06899700  0.75278499  0.96968183    -0.19800
F875        F  0.08448243  0.71895283  0.98259772    -0.20120
F876        F  0.11799242  0.76885573  0.98568943    -0.22800
C877        C  0.18477658  0.91322451  0.27284646    -0.05630
C878        C  0.16602448  0.90519162  0.24149067     0.00290
C879        C  0.14484139  0.91587036  0.23698107    -0.08280
C880        C  0.14317256  0.93442373  0.26439545    -0.05660
C881        C  0.16202248  0.94263853  0.29566139     0.00280
C882        C  0.18275765  0.93142374  0.30056044    -0.08190
C883        C  0.20310332  0.93791239  0.33427638     0.62190
H884        H  0.20066029  0.90464031  0.27609125     0.12880
H885        H  0.12799426  0.94378283  0.26092507     0.12900
C886        C  0.12525572  0.90905542  0.20246847     0.62420
F887        F  0.19986039  0.91087382  0.34806520    -0.22740
F888        F  0.19570938  0.95137932  0.36254991    -0.20070
F889        F  0.23359893  0.95688961  0.32407202    -0.19750
F890        F  0.10425614  0.87824600  0.20084370    -0.19800
F891        F  0.14407368  0.91799099  0.17139223    -0.20120
F892        F  0.10883065  0.92442032  0.20196306    -0.22800
C893        C  0.08677609  0.98016425  0.43924444    -0.05630
C894        C  0.07133130  0.99428432  0.42350049     0.00290
C895        C  0.07485100  0.50113857  0.38517542    -0.08280
C896        C  0.09591274  0.49649953  0.36455499    -0.05660
C897        C  0.11311715  0.98474276  0.38096155     0.00280
C898        C  0.10787456  0.97535616  0.41851055    -0.08190
C899        C  0.12483676  0.96078434  0.43639410     0.62190
H900        H  0.08240569  0.97321925  0.46805265     0.12880
H901        H  0.10045390  0.50363826  0.33575953     0.12900
C902        C  0.05870809  0.51595113  0.36688724     0.62420
F903        F  0.11571399  0.95235944  0.47281711    -0.22740
F904        F  0.15627219  0.98102207  0.43566407    -0.20070
F905        F  0.11878662  0.93491557  0.41725248    -0.19750
F906        F  0.07161503  0.54490399  0.38049740    -0.19800
F907        F  0.02741792  0.49967391  0.37477335    -0.20120
F908        F  0.06251077  0.51800103  0.32881193    -0.22800
C909        C  0.05775160  0.74634169  0.29466058    -0.05630
C910        C  0.05491525  0.71730850  0.29611989     0.00290
C911        C  0.07467934  0.71133126  0.27398204    -0.08280
C912        C  0.09628282  0.73473844  0.25067425    -0.05660
C913        C  0.09794205  0.76323181  0.24778455     0.00280
C914        C  0.07859177  0.76937100  0.27046110    -0.08190
C915        C  0.07980891  0.79994213  0.26944993     0.62190
H916        H  0.04248200  0.75044182  0.31186439     0.12880
H917        H  0.11138660  0.73051963  0.23327999     0.12900
C918        C  0.07231149  0.68022761  0.27352702     0.62420
F919        F  0.06194226  0.80214702  0.29723296    -0.22740
F920        F  0.06878133  0.80383368  0.23598410    -0.20070
F921        F  0.10988895  0.82315697  0.27412552    -0.19750
F922        F  0.04204996  0.65774144  0.26788434    -0.19800
F923        F  0.08250724  0.67482571  0.30670251    -0.20120
F924        F  0.09018620  0.67824001  0.24558395    -0.22800
C925        C  0.49121200  0.59763782  0.44463064    -0.05630
C926        C  0.00560280  0.58221374  0.43002860     0.00290
C927        C  0.02305109  0.59377456  0.39683685    -0.08280
C928        C  0.02352917  0.61849290  0.37833954    -0.05660
C929        C  0.00868956  0.63343090  0.39268760     0.00280
C930        C  0.49340752  0.62371386  0.42747621    -0.08190
C931        C  0.47986776  0.64027834  0.44829678     0.62190
H932        H  0.47940802  0.59028722  0.47089709     0.12880
H933        H  0.03518896  0.62606804  0.35182649     0.12900
C934        C  0.04135147  0.58040528  0.38092511     0.62420
F935        F  0.48928877  0.64385456  0.48478805    -0.22740
F936        F  0.44798384  0.62316739  0.44751589    -0.20070
F937        F  0.48926069  0.66899607  0.43388096    -0.19750
F938        F  0.02225752  0.54934808  0.37754081    -0.19800
F939        F  0.06564240  0.58702231  0.40445033    -0.20120
F940        F  0.05357770  0.59230824  0.34628734    -0.22800
C941        C  0.19678840  0.95403996  0.05130408    -0.05630
C942        C  0.16796315  0.94721562  0.03662773     0.00290
C943        C  0.14179690  0.91829485  0.04557561    -0.08280
C944        C  0.14494001  0.89943525  0.07180707    -0.05660
C945        C  0.17351554  0.90654185  0.08699247     0.00280
C946        C  0.20028668  0.93391182  0.07547324    -0.08190
C947        C  0.23231827  0.94260694  0.08927174     0.62190
H948        H  0.21668072  0.97592009  0.04460162     0.12880
H949        H  0.12461131  0.87824892  0.08001123     0.12900
C950        C  0.11027155  0.90559687  0.02790620     0.62420
F951        F  0.25466127  0.97077356  0.07569732    -0.22740
F952        F  0.24009769  0.92133323  0.07772638    -0.20070
F953        F  0.23291617  0.94389511  0.12747614    -0.19750
F954        F  0.11216742  0.91876378  0.99378515    -0.19800
F955        F  0.09080576  0.91005183  0.05100410    -0.20120
F956        F  0.09733708  0.87460387  0.02233049    -0.22800
C957        C  0.26763991  0.58039120  0.93457486    -0.05630
C958        C  0.25764019  0.58841940  0.90216804     0.00290
C959        C  0.22592214  0.57122939  0.89254932    -0.08280
C960        C  0.20584800  0.54647540  0.91522152    -0.05660
C961        C  0.21534631  0.53930355  0.94855955     0.00280
C962        C  0.24698015  0.55660779  0.95853790    -0.08190
C963        C  0.25911723  0.55080744  0.99443075     0.62190
H964        H  0.29192019  0.59334557  0.94134799     0.12880
H965        H  0.18180812  0.53290250  0.90768827     0.12900
C966        C  0.21293758  0.57830152  0.85828072     0.62420
F967        F  0.28887664  0.57384303  0.00161121    -0.22740
F968        F  0.25972773  0.52391233  0.99218736    -0.20070
F969        F  0.24062519  0.54914757  0.02389814    -0.19750
F970        F  0.22871162  0.57739518  0.82744799    -0.19800
F971        F  0.21574747  0.60678166  0.86119055    -0.20120
F972        F  0.18194238  0.55751143  0.85330494    -0.22800
C973        C  0.37096920  0.89852820  0.40823920    -0.05630
C974        C  0.38070676  0.88815005  0.37813552     0.00290
C975        C  0.41277737  0.90137583  0.37045000    -0.08280
C976        C  0.43399390  0.92246588  0.39542968    -0.05660
C977        C  0.42421984  0.93219590  0.42607104     0.00280
C978        C  0.39222820  0.92064479  0.43230622    -0.08190
C979        C  0.38046164  0.93040645  0.46520060     0.62190
H980        H  0.34640826  0.88830292  0.41345527     0.12880
H981        H  0.45854882  0.93191614  0.39056485     0.12900
C982        C  0.42600370  0.89487973  0.33618832     0.62420
F983        F  0.34852055  0.91552954  0.46662851    -0.22740
F984        F  0.39107374  0.96132935  0.46296099    -0.20070
F985        F  0.39065261  0.92375690  0.49759261    -0.19750
F986        F  0.44634459  0.92213102  0.31878110    -0.19800
F987        F  0.40376381  0.87728515  0.31072663    -0.20120
F988        F  0.44197381  0.88023964  0.34652406    -0.22800
C989        C  0.25692099  0.82299481  0.30399132    -0.05630
C990        C  0.28839947  0.84123870  0.29488611     0.00290
C991        C  0.29710193  0.85915176  0.26201612    -0.08280
C992        C  0.27381333  0.85877394  0.23996376    -0.05660
C993        C  0.24245608  0.83897517  0.24756906     0.00280
C994        C  0.23363447  0.82137107  0.28055703    -0.08190
C995        C  0.19989604  0.80174861  0.29124846     0.62190
H996        H  0.25075242  0.80939441  0.32919363     0.12880
H997        H  0.27995779  0.87331725  0.21574408     0.12900
C998        C  0.33052405  0.87696334  0.24885919     0.62420
F999        F  0.19635557  0.78901165  0.32624811    -0.22740
F1000       F  0.18526990  0.77837463  0.26632153    -0.20070
F1001       F  0.18576739  0.81930383  0.29107508    -0.19750
F1002       F  0.34293797  0.85791873  0.24773719    -0.19800
F1003       F  0.34769299  0.90074162  0.27244141    -0.20120
F1004       F  0.33306790  0.88913920  0.21369802    -0.22800
C1005       C  0.40213424  0.90902413  0.63238641    -0.05630
C1006       C  0.38987855  0.87855540  0.62189836     0.00290
C1007       C  0.39974746  0.87178592  0.58839596    -0.08280
C1008       C  0.42154060  0.89604578  0.56616953    -0.05660
C1009       C  0.43268810  0.92651325  0.57587806     0.00280
C1010       C  0.42331409  0.93324568  0.60969791    -0.08190
C1011       C  0.43502550  0.96581855  0.62117494     0.62190
H1012       H  0.39381792  0.91367388  0.65781747     0.12880
H1013       H  0.42918998  0.89145799  0.54018863     0.12900
C1014       C  0.38625196  0.83920110  0.57549146     0.62420
F1015       F  0.42496335  0.96751296  0.65631295    -0.22740
F1016       F  0.42436107  0.97940551  0.59664820    -0.20070
F1017       F  0.46693309  0.98171670  0.62090477    -0.19750
F1018       F  0.35454427  0.82586056  0.57234654    -0.19800
F1019       F  0.39303814  0.82272928  0.60071542    -0.20120
F1020       F  0.39806630  0.83772297  0.54139854    -0.22800
C1021       C  0.33632306  0.76260708  0.69638890    -0.05630
C1022       C  0.34108455  0.78986077  0.71204632     0.00290
C1023       C  0.34566169  0.79414526  0.75067521    -0.08280
C1024       C  0.34488895  0.77063804  0.77256446    -0.05660
C1025       C  0.33969131  0.74327832  0.75698898     0.00280
C1026       C  0.33538151  0.73901740  0.71842320    -0.08190
C1027       C  0.32910751  0.70938859  0.70107471     0.62190
H1028       H  0.33269493  0.75973662  0.66682028     0.12880
H1029       H  0.34791842  0.77323134  0.80225144     0.12900
C1030       C  0.35098703  0.82327897  0.76865344     0.62420
F1031       F  0.32530939  0.70962051  0.66316629    -0.22740
F1032       F  0.30249574  0.68548856  0.71624634    -0.20070
F1033       F  0.35358803  0.70463694  0.70781994    -0.19750
F1034       F  0.32511651  0.82619322  0.76438368    -0.19800
F1035       F  0.37611328  0.84804246  0.75225157    -0.20120
F1036       F  0.35672201  0.82352891  0.80615639    -0.22800
C1037       C  0.34211436  0.76692184  0.96064673    -0.05630
C1038       C  0.32575499  0.78112516  0.94799643     0.00290
C1039       C  0.31112313  0.77324718  0.91316513    -0.08280
C1040       C  0.31271199  0.75069403  0.89240115    -0.05660
C1041       C  0.32930065  0.73675027  0.90487714     0.00280
C1042       C  0.34442840  0.74498363  0.93933607    -0.08190
C1043       C  0.36318041  0.73089168  0.95302437     0.62190
H1044       H  0.35363651  0.77368919  0.98708829     0.12880
H1045       H  0.30165597  0.74428598  0.86565305     0.12900
C1046       C  0.29476284  0.78928486  0.89764876     0.62420
F1047       F  0.37444384  0.74041904  0.98826857    -0.22740
F1048       F  0.38799950  0.73926472  0.92942986    -0.20070
F1049       F  0.34501650  0.69948118  0.95383988    -0.19750
F1050       F  0.31511175  0.82031208  0.89554714    -0.19800
F1051       F  0.27025255  0.78378260  0.92040360    -0.20120
F1052       F  0.28341734  0.77932525  0.86253614    -0.22800
C1053       C  0.28590761  0.82288525  0.08187669    -0.05630
C1054       C  0.27838367  0.81781089  0.04429388     0.00290
C1055       C  0.25025916  0.81534350  0.03194811    -0.08280
C1056       C  0.23087741  0.81843177  0.05795941    -0.05660
C1057       C  0.23969317  0.82569413  0.09498334     0.00280
C1058       C  0.26771497  0.82800187  0.10712906    -0.08190
C1059       C  0.27907533  0.83697219  0.14623715     0.62190
H1060       H  0.30755975  0.82493979  0.09075301     0.12880
H1061       H  0.20909857  0.81620168  0.04934887     0.12900
C1062       C  0.24114662  0.81044306  0.99152444     0.62420
F1063       F  0.30618963  0.83661416  0.15281076    -0.22740
F1064       F  0.25706201  0.81697633  0.17102411    -0.20070
F1065       F  0.28477864  0.86623001  0.15196071    -0.19750
F1066       F  0.23539587  0.78194094  0.98111468    -0.19800
F1067       F  0.26461955  0.83245239  0.96972310    -0.20120
F1068       F  0.21470613  0.81207422  0.98502146    -0.22800
C1069       C  0.35118212  0.74548511  0.32080355    -0.05630
C1070       C  0.32783229  0.72103827  0.34122110     0.00290
C1071       C  0.30711311  0.72592718  0.36311488    -0.08280
C1072       C  0.30957635  0.75482381  0.36184830    -0.05660
C1073       C  0.33314374  0.77913974  0.34167430     0.00280
C1074       C  0.35459351  0.77464242  0.32113519    -0.08190
C1075       C  0.38084902  0.80036337  0.29942969     0.62190
H1076       H  0.36677537  0.74144260  0.30412257     0.12880
H1077       H  0.29320180  0.75868965  0.37717684     0.12900
C1078       C  0.28236280  0.70168680  0.38801655     0.62420
F1079       F  0.39698083  0.79020298  0.27831506    -0.22740
F1080       F  0.40137549  0.82163001  0.32372036    -0.20070
F1081       F  0.36948469  0.81405852  0.27584850    -0.19750
F1082       F  0.28965354  0.67981210  0.39899425    -0.19800
F1083       F  0.25452264  0.68790240  0.36954439    -0.20120
F1084       F  0.27894308  0.71475387  0.41981528    -0.22800
C1085       C  0.41132942  0.69148062  0.32060196    -0.05630
C1086       C  0.38434327  0.66376633  0.32887120     0.00290
C1087       C  0.38720962  0.63778958  0.33746197    -0.08280
C1088       C  0.41611285  0.63995982  0.33274422    -0.05660
C1089       C  0.44325619  0.66818569  0.32777582     0.00280
C1090       C  0.44081171  0.69486253  0.32369425    -0.08190
C1091       C  0.46822978  0.72714713  0.32550244     0.62190
H1092       H  0.40954113  0.71125454  0.31298207     0.12880
H1093       H  0.41776183  0.61953142  0.33597482     0.12900
C1094       C  0.36180516  0.60845089  0.35492875     0.62420
F1095       F  0.45889959  0.74760889  0.33578712    -0.22740
F1096       F  0.48241871  0.73628111  0.29125120    -0.20070
F1097       F  0.48925395  0.72896297  0.35165071    -0.19750
F1098       F  0.34684957  0.58696975  0.32787878    -0.19800
F1099       F  0.34078404  0.61317588  0.37440476    -0.20120
F1100       F  0.37428949  0.59677271  0.38000785    -0.22800
C1101       C  0.26649345  0.59182389  0.35261041    -0.05630
C1102       C  0.27050968  0.60885351  0.32015991     0.00290
C1103       C  0.24828611  0.59702636  0.29185136    -0.08280
C1104       C  0.22206968  0.56811008  0.29739715    -0.05660
C1105       C  0.21818838  0.55116680  0.32998622     0.00280
C1106       C  0.24084272  0.56279612  0.35782404    -0.08190
C1107       C  0.23829136  0.54428839  0.39234638     0.62190
H1108       H  0.28389071  0.60153323  0.37388698     0.12880
H1109       H  0.20448540  0.55836731  0.27631232     0.12900
C1110       C  0.25273718  0.61456722  0.25597880     0.62420
F1111       F  0.26403436  0.55916469  0.41458181    -0.22740
F1112       F  0.23547326  0.51672897  0.38239086    -0.20070
F1113       F  0.21272461  0.53898714  0.41293702    -0.19750
F1114       F  0.28029880  0.62080877  0.23943591    -0.19800
F1115       F  0.25342287  0.64165822  0.26303816    -0.20120
F1116       F  0.22911828  0.59826032  0.23130346    -0.22800
C1117       C  0.25729730  0.81492758  0.63535282    -0.05630
C1118       C  0.28047274  0.83516385  0.65904427     0.00290
C1119       C  0.27629131  0.85674439  0.67890473    -0.08280
C1120       C  0.24796543  0.85607810  0.67598894    -0.05660
C1121       C  0.22428329  0.83539233  0.65290636     0.00280
C1122       C  0.22960988  0.81541835  0.63076141    -0.08190
C1123       C  0.20754570  0.79490213  0.60141214     0.62190
H1124       H  0.26127894  0.79913731  0.61948783     0.12880
H1125       H  0.24372364  0.87120213  0.69280090     0.12900
C1126       C  0.30139618  0.87995025  0.70363159     0.62420
F1127       F  0.22381014  0.79786798  0.56913879    -0.22740
F1128       F  0.18494475  0.80206540  0.59282767    -0.20070
F1129       F  0.19369459  0.76492839  0.61351422    -0.19750
F1130       F  0.32723908  0.89893399  0.68265272    -0.19800
F1131       F  0.30923270  0.86516170  0.73008332    -0.20120
F1132       F  0.29198957  0.89793972  0.72171176    -0.22800
C1133       C  0.19208898  0.91619891  0.67774425    -0.05630
C1134       C  0.16361461  0.88888399  0.67400861     0.00290
C1135       C  0.13632204  0.89144044  0.67080850    -0.08280
C1136       C  0.13903686  0.92031193  0.67419203    -0.05660
C1137       C  0.16765893  0.94720374  0.67375805     0.00280
C1138       C  0.19489610  0.94507973  0.67371534    -0.08190
C1139       C  0.22692609  0.97228078  0.66650322     0.62190
H1140       H  0.21295899  0.91529029  0.68248878     0.12880
H1141       H  0.11836386  0.92217393  0.67488813     0.12900
C1142       C  0.10442574  0.86556986  0.66085004     0.62420
F1143       F  0.24688405  0.96302169  0.65308769    -0.22740
F1144       F  0.23913313  0.48787132  0.69888728    -0.20070
F1145       F  0.22578797  0.99169248  0.64013460    -0.19750
F1146       F  0.08886211  0.84934777  0.69228989    -0.19800
F1147       F  0.10672610  0.84685064  0.63521516    -0.20120
F1148       F  0.08660173  0.87644363  0.64472486    -0.22800
C1149       C  0.08860672  0.77526783  0.65026680    -0.05630
C1150       C  0.11030622  0.77510995  0.67474654     0.00290
C1151       C  0.10320469  0.74786477  0.69409114    -0.08280
C1152       C  0.07439758  0.72174320  0.68784054    -0.05660
C1153       C  0.05238936  0.72263069  0.66452046     0.00280
C1154       C  0.05939061  0.74981276  0.64556485    -0.08190
C1155       C  0.03610222  0.75227476  0.62100893     0.62190
H1156       H  0.09485634  0.79568934  0.63446097     0.12880
H1157       H  0.06872319  0.70041863  0.70153612     0.12900
C1158       C  0.12550375  0.74535448  0.72037215     0.62420
F1159       F  0.04930860  0.77936568  0.60097986    -0.22740
F1160       F  0.01296537  0.75129474  0.64287323    -0.20070
F1161       F  0.02353631  0.72859069  0.59616534    -0.19750
F1162       F  0.14411290  0.77261284  0.73791054    -0.19800
F1163       F  0.14375669  0.73684749  0.70085829    -0.20120
F1164       F  0.10960346  0.72353875  0.74755528    -0.22800
C1165       C  0.38494790  0.91187332  0.01163992    -0.05630
C1166       C  0.38655915  0.88583469  0.00173424     0.00290
C1167       C  0.41629225  0.88868998  0.99916120    -0.08280
C1168       C  0.44240159  0.91799325  0.00003043    -0.05660
C1169       C  0.44085519  0.94374805  0.01171481     0.00280
C1170       C  0.41127360  0.93926948  0.02144219    -0.08190
C1171       C  0.40570333  0.96061666  0.04525772     0.62190
H1172       H  0.36269544  0.91044944  0.01451720     0.12880
H1173       H  0.46431470  0.92021985  0.99215414     0.12900
C1174       C  0.42194358  0.86184014  0.99806227     0.62420
F1175       F  0.38415694  0.94392110  0.07252973    -0.22740
F1176       F  0.39405110  0.97522373  0.02374769    -0.20070
F1177       F  0.43208067  0.98182823  0.06309126    -0.19750
F1178       F  0.42434603  0.85482085  0.96181065    -0.19800
F1179       F  0.39876937  0.83654633  0.01620193    -0.20120
F1180       F  0.44927036  0.86902673  0.01580262    -0.22800
C1181       C  0.47295321  0.58973587  0.99621782    -0.05630
C1182       C  0.00107986  0.61664701  0.00339238     0.00290
C1183       C  0.02851448  0.61469215  0.00316980    -0.08280
C1184       C  0.02571912  0.58577489  0.00261593    -0.05660
C1185       C  0.99813619  0.55947024  0.99229871     0.00280
C1186       C  0.47230079  0.56307582  0.98454628    -0.08190
C1187       C  0.44586343  0.54247995  0.95943876     0.62190
H1188       H  0.45151110  0.59013187  0.99550708     0.12880
H1189       H  0.04600981  0.58445891  0.00934837     0.12900
C1190       C  0.06075500  0.64208103  0.99853206     0.62420
F1191       F  0.44145139  0.56011256  0.93329522    -0.22740
F1192       F  0.41897961  0.52651700  0.97993988    -0.20070
F1193       F  0.45179889  0.52246782  0.94020583    -0.19750
F1194       F  0.07178589  0.65665572  0.03174276    -0.19800
F1195       F  0.06021568  0.66189699  0.97244176    -0.20120
F1196       F  0.08148241  0.63355105  0.98579205    -0.22800
C1197       C  0.06135387  0.98880431  0.97486692    -0.05630
C1198       C  0.05574800  0.50344235  0.00388962     0.00290
C1199       C  0.07820111  0.51817373  0.03162237    -0.08280
C1200       C  0.10530580  0.51625384  0.03032491    -0.05660
C1201       C  0.11083623  0.50144320  0.00130605     0.00280
C1202       C  0.08905316  0.98825531  0.97243659    -0.08190
C1203       C  0.09515037  0.97417468  0.93886747     0.62190
H1204       H  0.04395534  0.97831846  0.95367645     0.12880
H1205       H  0.12267946  0.52675769  0.05152006     0.12900
C1206       C  0.07365255  0.53604970  0.06199982     0.62420
F1207       F  0.07031377  0.96174489  0.91497043    -0.22740
F1208       F  0.10074181  0.95126530  0.94983366    -0.20070
F1209       F  0.12050750  0.99615859  0.91952662    -0.19750
F1210       F  0.04603994  0.51782154  0.08039275    -0.19800
F1211       F  0.07322310  0.56094617  0.04671765    -0.20120
F1212       F  0.09720929  0.54664965  0.08764464    -0.22800
C1213       C  0.49710064  0.02919842  0.99369239     0.03280
C1214       C  0.52474288  0.02833811  0.99147579    -0.12870
C1215       C  0.52606202  0.00294689  0.00392969     0.00780
C1216       C  0.99896898  0.47636852  0.01398365    -0.11400
C1217       C  0.97000064  0.47442716  0.01020454     0.03270
C1218       C  0.96963761  0.50152515  0.00148025    -0.10820
H1219       H  0.54583417  0.04771408  0.98125005     0.08860
H1220       H  0.00074115  0.45698524  0.02353430     0.06390
H1221       H  0.94799453  0.50103146  0.00081225     0.06240
C1222       C  0.66465791  0.35950117  0.67145770     0.03280
C1223       C  0.64015158  0.33121719  0.68349789    -0.12870
C1224       C  0.64017097  0.30394960  0.67690047     0.00780
C1225       C  0.66748196  0.30515178  0.66564001    -0.11400
C1226       C  0.69363061  0.33319093  0.65720257     0.03270
C1227       C  0.69126832  0.35972258  0.65739564    -0.10820
H1228       H  0.62008253  0.32954480  0.69673108     0.08860
H1229       H  0.66825579  0.28434632  0.66282185     0.06390
H1230       H  0.71086198  0.38053969  0.64717608     0.06240
C1231       C  0.85437656  0.16368140  0.32849100     0.03280
C1232       C  0.82721983  0.13882493  0.31528215    -0.12870
C1233       C  0.79909068  0.13849469  0.31751414     0.00780
C1234       C  0.79873543  0.16513538  0.32637879    -0.11400
C1235       C  0.82605903  0.19109360  0.33706245     0.03270
C1236       C  0.85312577  0.18940004  0.34041296    -0.10820
H1237       H  0.82724840  0.11879378  0.30548388     0.08860
H1238       H  0.77718072  0.16528161  0.32600521     0.06390
H1239       H  0.87351709  0.20881699  0.35140169     0.06240
C1240       C  0.82630981  0.30553646  0.97094332     0.03280
C1241       C  0.85312374  0.33439166  0.97115552    -0.12870
C1242       C  0.85684808  0.35623972  0.99747764     0.00780
C1243       C  0.83169297  0.34969644  0.02069168    -0.11400
C1244       C  0.80369144  0.32214497  0.01868898     0.03270
C1245       C  0.80151660  0.29946309  0.99477523    -0.10820
H1246       H  0.87134254  0.33922039  0.95151551     0.08860
H1247       H  0.83384653  0.36593153  0.04137088     0.06390
H1248       H  0.78114760  0.27707180  0.99528500     0.06240
C1249       C  0.83942538  0.31269091  0.68758032     0.03280
C1250       C  0.81140599  0.31268551  0.68435600    -0.12870
C1251       C  0.80938337  0.33407588  0.66137641     0.00780
C1252       C  0.83505963  0.35475957  0.64057562    -0.11400
C1253       C  0.86315058  0.35507099  0.64335227     0.03270
C1254       C  0.86539833  0.33406114  0.66707874    -0.10820
H1255       H  0.79134360  0.29635400  0.70011971     0.08860
H1256       H  0.83328337  0.37100125  0.62243468     0.06390
H1257       H  0.88717970  0.33446759  0.66982516     0.06240
C1258       C  0.81137440  0.33880821  0.31837020     0.03280
C1259       C  0.81121183  0.31108205  0.32021484    -0.12870
C1260       C  0.83351854  0.30844854  0.34075508     0.00780
C1261       C  0.85606233  0.33368055  0.35982724    -0.11400
C1262       C  0.85671529  0.36167309  0.35788707     0.03270
C1263       C  0.83372324  0.36387729  0.33808168    -0.10820
H1264       H  0.79405073  0.29165510  0.30502709     0.08860
H1265       H  0.87307827  0.33157981  0.37618959     0.06390
H1266       H  0.83345031  0.38511827  0.33776039     0.06240
C1267       C  0.66618361  0.47192366  0.01516833     0.03280
C1268       C  0.64162942  0.47749606  0.02131455    -0.12870
C1269       C  0.63970390  0.50024867  0.00137613     0.00780
C1270       C  0.66465196  0.02094744  0.97984923    -0.11400
C1271       C  0.69025803  0.01707169  0.97395272     0.03270
C1272       C  0.69003548  0.99146150  0.99022633    -0.10820
H1273       H  0.62348228  0.46379560  0.04088811     0.08860
H1274       H  0.66352674  0.03966273  0.96657817     0.06390
H1275       H  0.70801742  0.98644287  0.98331635     0.06240
C1276       C  0.50628820  0.15563347  0.36762777     0.03280
C1277       C  0.97720108  0.15203268  0.35998800    -0.12870
C1278       C  0.97338272  0.16914177  0.33185036     0.00780
C1279       C  0.49858725  0.18754192  0.30880468    -0.11400
C1280       C  0.52834302  0.19328678  0.31753166     0.03270
C1281       C  0.53216828  0.17772672  0.34761808    -0.10820
H1282       H  0.95751453  0.13586082  0.37626324     0.08860
H1283       H  0.49538538  0.19833137  0.28462385     0.06390
H1284       H  0.55498630  0.18237255  0.35532454     0.06240
C1285       C  0.66334451  0.46726151  0.31833101     0.03280
C1286       C  0.68943278  0.49628223  0.31505243    -0.12870
C1287       C  0.69071435  0.02081352  0.33377066     0.00780
C1288       C  0.66582631  0.01645922  0.35582014    -0.11400
C1289       C  0.63961437  0.48751810  0.35956703     0.03270
C1290       C  0.63812969  0.46287993  0.34028447    -0.10820
H1291       H  0.70864375  0.49984043  0.29757402     0.08860
H1292       H  0.66672328  0.03570678  0.36983650     0.06390
H1293       H  0.61746008  0.44069520  0.34185678     0.06240
O1294       O  0.62003584  0.31200217  0.12455970    -0.81650
C1295       C  0.72005422  0.33714751  0.21964160     0.97700
O1296       O  0.70422428  0.31284021  0.20175760    -0.70770
O1297       O  0.64512927  0.28663256  0.21464806    -0.74360
Al1298     Al  0.66840236  0.29879448  0.17044714     1.48980
C1299       C  0.61953255  0.28512526  0.21980211     0.92960
O1300       O  0.64430698  0.35867953  0.21061695    -0.80580
O1301       O  0.69649673  0.38222720  0.12143902    -0.74140
Al1302     Al  0.63438154  0.33539944  0.16770209     1.90120
O1303       O  0.69198564  0.39253397  0.19571821    -0.73210
O1304       O  0.72727785  0.35356756  0.13806151    -0.73060
O1305       O  0.71896006  0.36083561  0.21185680    -0.78720
O1306       O  0.69189055  0.30650364  0.12637947    -0.76920
O1307       O  0.66949452  0.33446351  0.16823311    -1.13060
O1308       O  0.63175513  0.27699581  0.14013004    -0.72250
C1309       C  0.61631001  0.28573717  0.12095305     0.98470
C1310       C  0.66773934  0.38439339  0.21474217     0.94860
Al1311     Al  0.70560871  0.36928832  0.16681509     1.55560
O1312       O  0.61153588  0.30041212  0.19953469    -0.76870
C1313       C  0.71845132  0.32896119  0.12082883     0.99030
C1314       C  0.67335324  0.38541872  0.11615672     0.93910
O1315       O  0.64937335  0.37067233  0.13600413    -0.82190
C1316       C  0.98227310  0.17885357  0.97744581     0.03280
C1317       C  0.98101511  0.15059188  0.98156303    -0.12870
C1318       C  0.50118058  0.14638349  0.00441964     0.00780
C1319       C  0.52126306  0.17074000  0.02667143    -0.11400
C1320       C  0.52479094  0.19985513  0.02158562     0.03270
C1321       C  0.50555113  0.20401182  0.99649463    -0.10820
H1322       H  0.96414413  0.13149460  0.96606292     0.08860
H1323       H  0.53422533  0.16730276  0.04811100     0.06360
H1324       H  0.50885197  0.22653423  0.99218416     0.06240
C1325       C  0.64994911  0.00751109  0.63762032     0.03280
C1326       C  0.64842882  0.47946831  0.64387352    -0.12870
C1327       C  0.66778064  0.47659502  0.66978199     0.00780
C1328       C  0.68690457  0.00173318  0.69149176    -0.11400
C1329       C  0.68993452  0.03042470  0.68437319     0.03270
C1330       C  0.67161511  0.03326061  0.65689769    -0.10820
H1331       H  0.63203091  0.45981503  0.62844522     0.08860
H1332       H  0.69994805  0.99922586  0.71370882     0.06390
H1333       H  0.67426945  0.05526312  0.65009099     0.06240
C1334       C  0.99455175  0.14153449  0.64044935     0.03280
C1335       C  0.52156106  0.17015428  0.64044798    -0.12870
C1336       C  0.52265066  0.19441366  0.65983040     0.00780
C1337       C  0.99602224  0.19094271  0.67704245    -0.11400
C1338       C  0.96823048  0.16328361  0.67519667     0.03270
C1339       C  0.96772694  0.13834922  0.65776993    -0.10820
H1340       H  0.54213061  0.17341494  0.62630991     0.08860
H1341       H  0.99720817  0.20938358  0.69323879     0.06390
H1342       H  0.94672439  0.11639799  0.65860113     0.06240
O1343       O  0.80767204  0.11604491  0.87441145    -0.81650
C1344       C  0.83770602  0.21938401  0.78240596     0.97700
O1345       O  0.81335060  0.20389549  0.80122381    -0.70770
O1346       O  0.78499788  0.14559079  0.78529033    -0.74360
Al1347     Al  0.79801908  0.16712735  0.83028324     1.48980
C1348       C  0.78248301  0.11998998  0.77926547     0.92960
O1349       O  0.85562242  0.13961299  0.78663523    -0.80580
O1350       O  0.88248605  0.18978762  0.87521223    -0.74140
Al1351     Al  0.83204564  0.13034923  0.83047406     1.90120
O1352       O  0.89093521  0.18644220  0.79940747    -0.73210
O1353       O  0.85562143  0.22246840  0.86192693    -0.73060
O1354       O  0.86085526  0.21606504  0.78697576    -0.78720
O1355       O  0.80713776  0.18920928  0.87494127    -0.76920
O1356       O  0.83320488  0.16612015  0.83062774    -1.13060
O1357       O  0.77444208  0.13030745  0.85927465    -0.72250
C1358       C  0.78120297  0.11313494  0.87775889     0.98470
C1359       C  0.88158346  0.16259286  0.78042677     0.94860
Al1360     Al  0.86941570  0.20069609  0.83093371     1.55560
O1361       O  0.79650432  0.11024943  0.79927502    -0.76870
C1362       C  0.83105324  0.21463892  0.88010750     0.99030
C1363       C  0.88376444  0.16581291  0.88079255     0.93910
O1364       O  0.86775926  0.14279751  0.86118007    -0.82190
O1365       O  0.97522798  0.02393175  0.54438900    -0.81650
C1366       C  0.54972374  0.99862968  0.44753888     0.97700
O1367       O  0.55867489  0.02304099  0.46560348    -0.70770
O1368       O  0.52635026  0.05182339  0.45406613    -0.74360
Al1369     Al  0.53671516  0.03747351  0.49747438     1.48980
C1370       C  0.50343821  0.05585244  0.45191661     0.92960
O1371       O  0.95118273  0.47961269  0.45615530    -0.80580
O1372       O  0.97988845  0.45353158  0.54335917    -0.74140
Al1373     Al  0.96553453  0.00195065  0.50024487     1.90120
O1374       O  0.96404631  0.44508205  0.46974934    -0.73210
O1375       O  0.53914778  0.48144223  0.52587371    -0.73060
O1376       O  0.52308297  0.47624756  0.45257569    -0.78720
O1377       O  0.55131375  0.02789987  0.54095206    -0.76920
O1378       O  0.50128043  0.00223117  0.49847117    -1.13060
O1379       O  0.52231766  0.05901209  0.52922489    -0.72250
C1380       C  0.99781078  0.05027037  0.54822278     0.98470
C1381       C  0.94785315  0.45352566  0.45173904     0.94860
Al1382     Al  0.50150590  0.46711268  0.49794935     1.55560
O1383       O  0.97926529  0.03890658  0.47072038    -0.76870
C1384       C  0.55486362  0.00512704  0.54478521     0.99030
C1385       C  0.95363191  0.45035878  0.54939707     0.93910
O1386       O  0.94428283  0.46555608  0.53092967    -0.82190
C1387       C  0.93766176  0.14428736  0.73208998    -0.05630
C1388       C  0.94196551  0.15932066  0.69817747     0.00290
C1389       C  0.92426484  0.17336942  0.68962902    -0.08280
C1390       C  0.90463863  0.17418691  0.71714989    -0.05660
C1391       C  0.90179094  0.16061232  0.75200039     0.00280
C1392       C  0.91765430  0.14452365  0.75909305    -0.08190
C1393       C  0.91494736  0.12933571  0.79602484     0.62190
H1394       H  0.95132998  0.13355962  0.73786089     0.12880
H1395       H  0.89152906  0.18548924  0.71174847     0.12900
C1396       C  0.92551733  0.18652204  0.65140916     0.62420
F1397       F  0.93313874  0.11582455  0.79769427    -0.22740
F1398       F  0.88465807  0.10699043  0.80249931    -0.20070
F1399       F  0.92447467  0.15119290  0.82307172    -0.19750
F1400       F  0.91872756  0.16439052  0.62520209    -0.19800
F1401       F  0.95459070  0.21080793  0.64437747    -0.20120
F1402       F  0.90450807  0.19664208  0.64784562    -0.22800
C1403       C  0.96952876  0.09824786  0.59741245    -0.05630
C1404       C  0.99422840  0.11547402  0.62113033     0.00290
C1405       C  0.51864953  0.10875726  0.62348521    -0.08280
C1406       C  0.51960316  0.08839845  0.59805410    -0.05660
C1407       C  0.99501740  0.07136935  0.57412213     0.00280
C1408       C  0.96864538  0.07524906  0.57513209    -0.08190
C1409       C  0.93954265  0.05569911  0.55302207     0.62190
H1410       H  0.95083992  0.10320005  0.59619020     0.12880
H1411       H  0.53915462  0.08467127  0.59811701     0.12900
C1412       C  0.54332172  0.12117387  0.65312763     0.62420
F1413       F  0.91831620  0.06558955  0.55590336    -0.22740
F1414       F  0.92541419  0.02607153  0.56600494    -0.20070
F1415       F  0.94651828  0.05626648  0.51611835    -0.19750
F1416       F  0.53530145  0.13284583  0.68283643    -0.19800
F1417       F  0.57086467  0.14360950  0.63794265    -0.20120
F1418       F  0.54767682  0.09797486  0.66682858    -0.22800
C1419       C  0.60273812  0.00316971  0.55312472    -0.05630
C1420       C  0.57940604  0.00703834  0.56927963     0.00290
C1421       C  0.58058351  0.01331017  0.60750042    -0.08280
C1422       C  0.60451547  0.01398120  0.62872963    -0.05660
C1423       C  0.62730284  0.00915053  0.61270608     0.00280
C1424       C  0.62707879  0.00458760  0.57411211    -0.08190
C1425       C  0.65281255  0.50210123  0.55500404     0.62190
H1426       H  0.60190671  0.49932294  0.52366679     0.12880
H1427       H  0.60538816  0.01779508  0.65825636     0.12900
C1428       C  0.55621354  0.01833663  0.62587267     0.62420
F1429       F  0.65120732  0.50380076  0.51690374    -0.22740
F1430       F  0.65090155  0.47464361  0.56402010    -0.20070
F1431       F  0.68118038  0.02569683  0.56586402    -0.19750
F1432       F  0.52727420  0.49372324  0.61932261    -0.19800
F1433       F  0.55774205  0.04450058  0.61170924    -0.20120
F1434       F  0.56021115  0.02156992  0.66377917    -0.22800
C1435       C  0.74422796  0.06183665  0.70310608    -0.05630
C1436       C  0.71403634  0.05712632  0.70453447     0.00290
C1437       C  0.70731967  0.07523508  0.72825412    -0.08280
C1438       C  0.73123624  0.09716805  0.75008271    -0.05660
C1439       C  0.76069348  0.10006476  0.75078821     0.00280
C1440       C  0.76761964  0.08254733  0.72638407    -0.08190
C1441       C  0.79940987  0.08554767  0.72468585     0.62190
H1442       H  0.74892675  0.04789993  0.68465003     0.12880
H1443       H  0.72656097  0.11107975  0.76860721     0.12900
C1444       C  0.67491653  0.07047120  0.73239460     0.62420
F1445       F  0.80216234  0.06968891  0.69533458    -0.22740
F1446       F  0.80484903  0.07401051  0.75683045    -0.20070
F1447       F  0.82170497  0.11585546  0.72025608    -0.19750
F1448       F  0.65394532  0.03996126  0.73859258    -0.19800
F1449       F  0.66693631  0.08037597  0.70077314    -0.20120
F1450       F  0.67273097  0.08655882  0.76186515    -0.22800
C1451       C  0.91524624  0.18726752  0.93783615    -0.05630
C1452       C  0.90580315  0.16598239  0.90898874     0.00290
C1453       C  0.92150408  0.14930669  0.90527422    -0.08280
C1454       C  0.95091400  0.16161844  0.92062241    -0.05660
C1455       C  0.95899492  0.18013095  0.95211298     0.00280
C1456       C  0.93963147  0.19223324  0.96194517    -0.08190
C1457       C  0.94326166  0.20905343  0.99777337     0.62190
H1458       H  0.90247370  0.19897320  0.94246970     0.12880
H1459       H  0.96499512  0.15186143  0.91251806     0.12900
C1460       C  0.90670727  0.11572713  0.89557407     0.62420
F1461       F  0.91788493  0.21243734  0.00478291    -0.22740
F1462       F  0.96895560  0.23778404  0.99569673    -0.20070
F1463       F  0.94602655  0.19297749  0.02727789    -0.19750
F1464       F  0.92471221  0.11143476  0.87005324    -0.19800
F1465       F  0.87701771  0.10297168  0.88256468    -0.20120
F1466       F  0.90549167  0.09965639  0.92733493    -0.22800
C1467       C  0.53964889  0.22580584  0.08163654    -0.05630
C1468       C  0.54772693  0.22503710  0.04469502     0.00290
C1469       C  0.57825019  0.24551412  0.03227081    -0.08280
C1470       C  0.60025585  0.26492915  0.05807058    -0.05660
C1471       C  0.59237165  0.26468578  0.09530499     0.00280
C1472       C  0.56139992  0.24575050  0.10712100    -0.08190
C1473       C  0.55146986  0.24660523  0.14654155     0.62190
H1474       H  0.51618097  0.21011446  0.09050497     0.12880
H1475       H  0.62387000  0.28034922  0.04946739     0.12900
C1476       C  0.58760224  0.24659293  0.99215425     0.62420
F1477       F  0.52025780  0.22672061  0.15220717    -0.22740
F1478       F  0.55729800  0.27565005  0.15440802    -0.20070
F1479       F  0.56766398  0.23853936  0.17067883    -0.19750
F1480       F  0.56899706  0.25278484  0.96968179    -0.19800
F1481       F  0.58448252  0.21895271  0.98259785    -0.20120
F1482       F  0.61799248  0.26885563  0.98568946    -0.22800
C1483       C  0.68477657  0.41322450  0.27284646    -0.05630
C1484       C  0.66602447  0.40519161  0.24149068     0.00290
C1485       C  0.64484138  0.41587035  0.23698108    -0.08280
C1486       C  0.64317255  0.43442372  0.26439546    -0.05660
C1487       C  0.66202248  0.44263852  0.29566140     0.00280
C1488       C  0.68275765  0.43142374  0.30056044    -0.08190
C1489       C  0.70310332  0.43791238  0.33427638     0.62190
H1490       H  0.70066028  0.40464030  0.27609124     0.12880
H1491       H  0.62799425  0.44378282  0.26092508     0.12900
C1492       C  0.62525570  0.40905541  0.20246849     0.62420
F1493       F  0.69986037  0.41087381  0.34806520    -0.22740
F1494       F  0.69570939  0.45137933  0.36254991    -0.20070
F1495       F  0.73359892  0.45688959  0.32407201    -0.19750
F1496       F  0.60425612  0.37824599  0.20084372    -0.19800
F1497       F  0.64407366  0.41799098  0.17139224    -0.20120
F1498       F  0.60883063  0.42442030  0.20196308    -0.22800
C1499       C  0.58677609  0.48016425  0.43924444    -0.05630
C1500       C  0.57133130  0.49428432  0.42350049     0.00290
C1501       C  0.57485100  0.00113857  0.38517541    -0.08280
C1502       C  0.59591275  0.99649954  0.36455499    -0.05660
C1503       C  0.61311715  0.48474276  0.38096156     0.00280
C1504       C  0.60787456  0.47535616  0.41851056    -0.08190
C1505       C  0.62483676  0.46078434  0.43639411     0.62190
H1506       H  0.58240569  0.47321925  0.46805266     0.12880
H1507       H  0.60045390  0.00363827  0.33575953     0.12900
C1508       C  0.55870809  0.01595113  0.36688725     0.62420
F1509       F  0.61571399  0.45235945  0.47281712    -0.22740
F1510       F  0.65627219  0.48102207  0.43566408    -0.20070
F1511       F  0.61878662  0.43491557  0.41725249    -0.19750
F1512       F  0.57161503  0.04490399  0.38049741    -0.19800
F1513       F  0.52741792  0.99967392  0.37477334    -0.20120
F1514       F  0.56251078  0.01800104  0.32881193    -0.22800
C1515       C  0.55775160  0.24634168  0.29466058    -0.05630
C1516       C  0.55491525  0.21730850  0.29611989     0.00290
C1517       C  0.57467934  0.21133126  0.27398203    -0.08280
C1518       C  0.59628282  0.23473844  0.25067425    -0.05660
C1519       C  0.59794204  0.26323180  0.24778454     0.00280
C1520       C  0.57859176  0.26937100  0.27046109    -0.08190
C1521       C  0.57980891  0.29994213  0.26944992     0.62190
H1522       H  0.54248200  0.25044181  0.31186439     0.12880
H1523       H  0.61138659  0.23051963  0.23327998     0.12900
C1524       C  0.57231149  0.18022761  0.27352702     0.62420
F1525       F  0.56194226  0.30214701  0.29723295    -0.22740
F1526       F  0.56878132  0.30383367  0.23598409    -0.20070
F1527       F  0.60988895  0.32315696  0.27412551    -0.19750
F1528       F  0.54204996  0.15774144  0.26788435    -0.19800
F1529       F  0.58250724  0.17482571  0.30670252    -0.20120
F1530       F  0.59018620  0.17824001  0.24558395    -0.22800
C1531       C  0.99121201  0.09763782  0.44463064    -0.05630
C1532       C  0.50560280  0.08221374  0.43002860     0.00290
C1533       C  0.52305108  0.09377456  0.39683684    -0.08280
C1534       C  0.52352916  0.11849290  0.37833954    -0.05660
C1535       C  0.50868956  0.13343090  0.39268760     0.00280
C1536       C  0.99340753  0.12371386  0.42747621    -0.08190
C1537       C  0.97986777  0.14027835  0.44829679     0.62190
H1538       H  0.97940803  0.09028722  0.47089709     0.12880
H1539       H  0.53518896  0.12606803  0.35182649     0.12900
C1540       C  0.54135147  0.08040528  0.38092510     0.62420
F1541       F  0.98928879  0.14385457  0.48478805    -0.22740
F1542       F  0.94798385  0.12316740  0.44751590    -0.20070
F1543       F  0.98926070  0.16899608  0.43388096    -0.19750
F1544       F  0.52225752  0.04934808  0.37754080    -0.19800
F1545       F  0.56564240  0.08702231  0.40445033    -0.20120
F1546       F  0.55357770  0.09230824  0.34628733    -0.22800
C1547       C  0.69678839  0.45403996  0.05130409    -0.05630
C1548       C  0.66796314  0.44721563  0.03662775     0.00290
C1549       C  0.64179689  0.41829486  0.04557563    -0.08280
C1550       C  0.64493999  0.39943526  0.07180708    -0.05660
C1551       C  0.67351553  0.40654186  0.08699247     0.00280
C1552       C  0.70028667  0.43391183  0.07547324    -0.08190
C1553       C  0.73231826  0.44260694  0.08927174     0.62190
H1554       H  0.71668071  0.47592010  0.04460163     0.12880
H1555       H  0.62461130  0.37824892  0.08001124     0.12900
C1556       C  0.61027154  0.40559689  0.02790622     0.62420
F1557       F  0.75466126  0.47077356  0.07569732    -0.22740
F1558       F  0.74009768  0.42133323  0.07772637    -0.20070
F1559       F  0.73291616  0.44389511  0.12747614    -0.19750
F1560       F  0.61216740  0.41876380  0.99378517    -0.19800
F1561       F  0.59080575  0.41005184  0.05100413    -0.20120
F1562       F  0.59733706  0.37460389  0.02233051    -0.22800
C1563       C  0.76763992  0.08039120  0.93457486    -0.05630
C1564       C  0.75764020  0.08841939  0.90216802     0.00290
C1565       C  0.72592215  0.07122937  0.89254929    -0.08280
C1566       C  0.70584801  0.04647538  0.91522150    -0.05660
C1567       C  0.71534632  0.03930354  0.94855953     0.00280
C1568       C  0.74698015  0.05660779  0.95853789    -0.08190
C1569       C  0.75911723  0.05080745  0.99443075     0.62190
H1570       H  0.79192019  0.09334557  0.94134799     0.12880
H1571       H  0.68180813  0.03290247  0.90768824     0.12900
C1572       C  0.71293759  0.07830149  0.85828069     0.62420
F1573       F  0.78887664  0.07384305  0.00161122    -0.22740
F1574       F  0.75972774  0.02391235  0.99218738    -0.20070
F1575       F  0.74062518  0.04914758  0.02389813    -0.19750
F1576       F  0.72871164  0.07739515  0.82744796    -0.19800
F1577       F  0.71574747  0.10678163  0.86119050    -0.20120
F1578       F  0.68194239  0.05751139  0.85330490    -0.22800
C1579       C  0.87096920  0.39852821  0.40823920    -0.05630
C1580       C  0.88070676  0.38815005  0.37813552     0.00290
C1581       C  0.91277737  0.40137583  0.37045000    -0.08280
C1582       C  0.93399390  0.42246588  0.39542967    -0.05660
C1583       C  0.92421984  0.43219590  0.42607104     0.00280
C1584       C  0.89222819  0.42064480  0.43230622    -0.08190
C1585       C  0.88046164  0.43040646  0.46520060     0.62190
H1586       H  0.84640825  0.38830293  0.41345527     0.12880
H1587       H  0.95854881  0.43191614  0.39056485     0.12900
C1588       C  0.92600369  0.39487973  0.33618832     0.62420
F1589       F  0.84852055  0.41552955  0.46662851    -0.22740
F1590       F  0.89107374  0.46132936  0.46296099    -0.20070
F1591       F  0.89065261  0.42375690  0.49759261    -0.19750
F1592       F  0.94634459  0.42213102  0.31878110    -0.19800
F1593       F  0.90376381  0.37728516  0.31072663    -0.20120
F1594       F  0.94197380  0.38023965  0.34652406    -0.22800
C1595       C  0.75692099  0.32299482  0.30399132    -0.05630
C1596       C  0.78839946  0.34123870  0.29488611     0.00290
C1597       C  0.79710193  0.35915176  0.26201612    -0.08280
C1598       C  0.77381333  0.35877394  0.23996375    -0.05660
C1599       C  0.74245608  0.33897517  0.24756905     0.00280
C1600       C  0.73363446  0.32137108  0.28055703    -0.08190
C1601       C  0.69989603  0.30174862  0.29124846     0.62190
H1602       H  0.75075241  0.30939442  0.32919364     0.12880
H1603       H  0.77995779  0.37331725  0.21574407     0.12900
C1604       C  0.83052404  0.37696334  0.24885919     0.62420
F1605       F  0.69635557  0.28901166  0.32624812    -0.22740
F1606       F  0.68526990  0.27837464  0.26632153    -0.20070
F1607       F  0.68576739  0.31930385  0.29107508    -0.19750
F1608       F  0.84293796  0.35791873  0.24773718    -0.19800
F1609       F  0.84769299  0.40074162  0.27244141    -0.20120
F1610       F  0.83306790  0.38913919  0.21369802    -0.22800
C1611       C  0.90213425  0.40902413  0.63238642    -0.05630
C1612       C  0.88987856  0.37855541  0.62189837     0.00290
C1613       C  0.89974746  0.37178592  0.58839597    -0.08280
C1614       C  0.92154060  0.39604578  0.56616953    -0.05660
C1615       C  0.93268810  0.42651325  0.57587806     0.00280
C1616       C  0.92331410  0.43324568  0.60969791    -0.08190
C1617       C  0.93502551  0.46581855  0.62117494     0.62190
H1618       H  0.89381793  0.41367388  0.65781748     0.12880
H1619       H  0.92918998  0.39145799  0.54018863     0.12900
C1620       C  0.88625196  0.33920110  0.57549147     0.62420
F1621       F  0.92496336  0.46751296  0.65631295    -0.22740
F1622       F  0.92436107  0.47940551  0.59664821    -0.20070
F1623       F  0.96693309  0.48171671  0.62090477    -0.19750
F1624       F  0.85454427  0.32586057  0.57234654    -0.19800
F1625       F  0.89303814  0.32272928  0.60071542    -0.20120
F1626       F  0.89806629  0.33772297  0.54139854    -0.22800
C1627       C  0.83632307  0.26260708  0.69638890    -0.05630
C1628       C  0.84108456  0.28986077  0.71204633     0.00290
C1629       C  0.84566171  0.29414527  0.75067521    -0.08280
C1630       C  0.84488897  0.27063805  0.77256446    -0.05660
C1631       C  0.83969133  0.24327832  0.75698898     0.00280
C1632       C  0.83538153  0.23901740  0.71842321    -0.08190
C1633       C  0.82910752  0.20938859  0.70107471     0.62190
H1634       H  0.83269494  0.25973662  0.66682029     0.12880
H1635       H  0.84791844  0.27323135  0.80225144     0.12900
C1636       C  0.85098705  0.32327897  0.76865345     0.62420
F1637       F  0.82530940  0.20962051  0.66316630    -0.22740
F1638       F  0.80249575  0.18548856  0.71624635    -0.20070
F1639       F  0.85358804  0.20463694  0.70781994    -0.19750
F1640       F  0.82511653  0.32619323  0.76438369    -0.19800
F1641       F  0.87611330  0.34804247  0.75225157    -0.20120
F1642       F  0.85672204  0.32352891  0.80615640    -0.22800
C1643       C  0.84211436  0.26692185  0.96064672    -0.05630
C1644       C  0.82575497  0.28112515  0.94799643     0.00290
C1645       C  0.81112309  0.27324715  0.91316513    -0.08280
C1646       C  0.81271195  0.25069400  0.89240116    -0.05660
C1647       C  0.82930063  0.23675026  0.90487715     0.00280
C1648       C  0.84442840  0.24498363  0.93933606    -0.08190
C1649       C  0.86318042  0.23089170  0.95302436     0.62190
H1650       H  0.85363652  0.27368920  0.98708827     0.12880
H1651       H  0.80165593  0.24428594  0.86565307     0.12900
C1652       C  0.79476280  0.28928482  0.89764878     0.62420
F1653       F  0.87444386  0.24041906  0.98826856    -0.22740
F1654       F  0.88799951  0.23926475  0.92942983    -0.20070
F1655       F  0.84501652  0.19948120  0.95383987    -0.19750
F1656       F  0.81511170  0.32031205  0.89554714    -0.19800
F1657       F  0.77025251  0.28378256  0.92040362    -0.20120
F1658       F  0.78341728  0.27932520  0.86253615    -0.22800
C1659       C  0.78590762  0.32288528  0.08187667    -0.05630
C1660       C  0.77838367  0.31781091  0.04429386     0.00290
C1661       C  0.75025916  0.31534351  0.03194810    -0.08280
C1662       C  0.73087740  0.31843178  0.05795941    -0.05660
C1663       C  0.73969317  0.32569414  0.09498333     0.00280
C1664       C  0.76771498  0.32800189  0.10712905    -0.08190
C1665       C  0.77907533  0.33697222  0.14623713     0.62190
H1666       H  0.80755976  0.32493983  0.09075299     0.12880
H1667       H  0.70909856  0.31620168  0.04934887     0.12900
C1668       C  0.74114660  0.31044306  0.99152443     0.62420
F1669       F  0.80618964  0.33661419  0.15281074    -0.22740
F1670       F  0.75706202  0.31697635  0.17102410    -0.20070
F1671       F  0.78477865  0.36623003  0.15196069    -0.19750
F1672       F  0.73539586  0.28194094  0.98111468    -0.19800
F1673       F  0.76461953  0.33245239  0.96972309    -0.20120
F1674       F  0.71470612  0.31207422  0.98502146    -0.22800
C1675       C  0.85118212  0.24548512  0.32080355    -0.05630
C1676       C  0.82783229  0.22103828  0.34122110     0.00290
C1677       C  0.80711311  0.22592719  0.36311488    -0.08280
C1678       C  0.80957635  0.25482382  0.36184829    -0.05660
C1679       C  0.83314374  0.27913975  0.34167430     0.00280
C1680       C  0.85459350  0.27464243  0.32113518    -0.08190
C1681       C  0.88084902  0.30036338  0.29942969     0.62190
H1682       H  0.86677537  0.24144261  0.30412257     0.12880
H1683       H  0.79320180  0.25868966  0.37717683     0.12900
C1684       C  0.78236280  0.20168681  0.38801655     0.62420
F1685       F  0.89698083  0.29020299  0.27831505    -0.22740
F1686       F  0.90137549  0.32163002  0.32372035    -0.20070
F1687       F  0.86948468  0.31405853  0.27584850    -0.19750
F1688       F  0.78965354  0.17981210  0.39899425    -0.19800
F1689       F  0.75452264  0.18790241  0.36954439    -0.20120
F1690       F  0.77894308  0.21475388  0.41981528    -0.22800
C1691       C  0.91132943  0.19148063  0.32060197    -0.05630
C1692       C  0.88434327  0.16376634  0.32887121     0.00290
C1693       C  0.88720962  0.13778959  0.33746198    -0.08280
C1694       C  0.91611285  0.13995982  0.33274423    -0.05660
C1695       C  0.94325619  0.16818570  0.32777583     0.00280
C1696       C  0.94081172  0.19486254  0.32369426    -0.08190
C1697       C  0.96822979  0.22714714  0.32550244     0.62190
H1698       H  0.90954114  0.21125455  0.31298208     0.12880
H1699       H  0.91776183  0.11953143  0.33597483     0.12900
C1700       C  0.86180516  0.10845090  0.35492877     0.62420
F1701       F  0.95889959  0.24760889  0.33578713    -0.22740
F1702       F  0.98241871  0.23628111  0.29125120    -0.20070
F1703       F  0.98925396  0.22896298  0.35165072    -0.19750
F1704       F  0.84684958  0.08696976  0.32787880    -0.19800
F1705       F  0.84078405  0.11317589  0.37440477    -0.20120
F1706       F  0.87428949  0.09677272  0.38000787    -0.22800
C1707       C  0.76649345  0.09182389  0.35261041    -0.05630
C1708       C  0.77050968  0.10885351  0.32015991     0.00290
C1709       C  0.74828612  0.09702637  0.29185136    -0.08280
C1710       C  0.72206969  0.06811009  0.29739715    -0.05660
C1711       C  0.71818839  0.05116681  0.32998622     0.00280
C1712       C  0.74084272  0.06279613  0.35782404    -0.08190
C1713       C  0.73829136  0.04428840  0.39234638     0.62190
H1714       H  0.78389071  0.10153324  0.37388698     0.12880
H1715       H  0.70448541  0.05836732  0.27631232     0.12900
C1716       C  0.75273719  0.11456723  0.25597879     0.62420
F1717       F  0.76403436  0.05916470  0.41458181    -0.22740
F1718       F  0.73547327  0.01672898  0.38239086    -0.20070
F1719       F  0.71272461  0.03898714  0.41293702    -0.19750
F1720       F  0.78029881  0.12080877  0.23943591    -0.19800
F1721       F  0.75342287  0.14165822  0.26303816    -0.20120
F1722       F  0.72911829  0.09826033  0.23130346    -0.22800
C1723       C  0.75729732  0.31492759  0.63535282    -0.05630
C1724       C  0.78047275  0.33516385  0.65904428     0.00290
C1725       C  0.77629132  0.35674438  0.67890474    -0.08280
C1726       C  0.74796544  0.35607810  0.67598895    -0.05660
C1727       C  0.72428331  0.33539234  0.65290635     0.00280
C1728       C  0.72960990  0.31541836  0.63076140    -0.08190
C1729       C  0.70754572  0.29490216  0.60141211     0.62190
H1730       H  0.76127896  0.29913732  0.61948782     0.12880
H1731       H  0.74372365  0.37120213  0.69280090     0.12900
C1732       C  0.80139618  0.37995024  0.70363162     0.62420
F1733       F  0.72381018  0.29786801  0.56913877    -0.22740
F1734       F  0.68494478  0.30206543  0.59282764    -0.20070
F1735       F  0.69369462  0.26492841  0.61351419    -0.19750
F1736       F  0.82723909  0.39893398  0.68265276    -0.19800
F1737       F  0.80923269  0.36516168  0.73008335    -0.20120
F1738       F  0.79198957  0.39793971  0.72171179    -0.22800
C1739       C  0.69208899  0.41619891  0.67774424    -0.05630
C1740       C  0.66361461  0.38888399  0.67400861     0.00290
C1741       C  0.63632204  0.39144044  0.67080851    -0.08280
C1742       C  0.63903686  0.42031193  0.67419203    -0.05660
C1743       C  0.66765893  0.44720374  0.67375804     0.00280
C1744       C  0.69489611  0.44507973  0.67371533    -0.08190
C1745       C  0.72692609  0.47228078  0.66650320     0.62190
H1746       H  0.71295899  0.41529029  0.68248878     0.12880
H1747       H  0.61836386  0.42217393  0.67488815     0.12900
C1748       C  0.60442573  0.36556985  0.66085009     0.62420
F1749       F  0.74688405  0.46302169  0.65308768    -0.22740
F1750       F  0.73913312  0.98787131  0.69888731    -0.20070
F1751       F  0.72578797  0.49169248  0.64013458    -0.19750
F1752       F  0.58886213  0.34934778  0.69228996    -0.19800
F1753       F  0.60672607  0.34685062  0.63521521    -0.20120
F1754       F  0.58660171  0.37644362  0.64472494    -0.22800
C1755       C  0.58860674  0.27526783  0.65026675    -0.05630
C1756       C  0.61030623  0.27510995  0.67474649     0.00290
C1757       C  0.60320469  0.24786477  0.69409111    -0.08280
C1758       C  0.57439758  0.22174320  0.68784052    -0.05660
C1759       C  0.55238937  0.22263069  0.66452043     0.00280
C1760       C  0.55939062  0.24981276  0.64556480    -0.08190
C1761       C  0.53610224  0.25227475  0.62100887     0.62190
H1762       H  0.59485636  0.29568933  0.63446090     0.12880
H1763       H  0.56872318  0.20041864  0.70153611     0.12900
C1764       C  0.62550375  0.24535449  0.72037213     0.62420
F1765       F  0.54930861  0.27936567  0.60097982    -0.22740
F1766       F  0.51296536  0.25129470  0.64287314    -0.20070
F1767       F  0.52353635  0.22859069  0.59616526    -0.19750
F1768       F  0.64411287  0.27261284  0.73791055    -0.19800
F1769       F  0.64375673  0.23684754  0.70085827    -0.20120
F1770       F  0.60960347  0.22353873  0.74755522    -0.22800
C1771       C  0.88494788  0.41187334  0.01163982    -0.05630
C1772       C  0.88655914  0.38583470  0.00173417     0.00290
C1773       C  0.91629224  0.38868999  0.99916117    -0.08280
C1774       C  0.94240157  0.41799326  0.00003040    -0.05660
C1775       C  0.94085517  0.44374807  0.01171475     0.00280
C1776       C  0.91127358  0.43926950  0.02144209    -0.08190
C1777       C  0.90570329  0.46061669  0.04525759     0.62190
H1778       H  0.86269542  0.41044945  0.01451708     0.12880
H1779       H  0.96431468  0.42021986  0.99215413     0.12900
C1780       C  0.92194357  0.36184015  0.99806227     0.62420
F1781       F  0.88415687  0.44392114  0.07252958    -0.22740
F1782       F  0.89405109  0.47522376  0.02374752    -0.20070
F1783       F  0.93208061  0.48182826  0.06309116    -0.19750
F1784       F  0.92434600  0.35482083  0.96181065    -0.19800
F1785       F  0.89876936  0.33654636  0.01620196    -0.20120
F1786       F  0.94927035  0.36902675  0.01580261    -0.22800
C1787       C  0.97295319  0.08973583  0.99621791    -0.05630
C1788       C  0.50107985  0.11664698  0.00339240     0.00290
C1789       C  0.52851448  0.11469214  0.00316973    -0.08280
C1790       C  0.52571913  0.08577488  0.00261586    -0.05660
C1791       C  0.49813618  0.05947021  0.99229871     0.00280
C1792       C  0.97230077  0.06307578  0.98454635    -0.08190
C1793       C  0.94586338  0.04247989  0.95943887     0.62190
H1794       H  0.95151108  0.09013184  0.99550721     0.12880
H1795       H  0.54600984  0.08445892  0.00934825     0.12900
C1796       C  0.56075497  0.14208103  0.99853185     0.62420
F1797       F  0.94145130  0.06011250  0.93329535    -0.22740
F1798       F  0.91897958  0.02651695  0.97994004    -0.20070
F1799       F  0.95179882  0.02246777  0.94020593    -0.19750
F1800       F  0.57178593  0.15665580  0.03174248    -0.19800
F1801       F  0.56021557  0.16189691  0.97244150    -0.20120
F1802       F  0.58148238  0.13355104  0.98579182    -0.22800
C1803       C  0.56135387  0.48880432  0.97486694    -0.05630
C1804       C  0.55574801  0.00344234  0.00388960     0.00290
C1805       C  0.57820112  0.01817373  0.03162234    -0.08280
C1806       C  0.60530581  0.01625384  0.03032488    -0.05660
C1807       C  0.61083624  0.00144318  0.00130602     0.00280
C1808       C  0.58905316  0.48825533  0.97243661    -0.08190
C1809       C  0.59515037  0.47417471  0.93886749     0.62190
H1810       H  0.54395534  0.47831848  0.95367646     0.12880
H1811       H  0.62267948  0.02675770  0.05152002     0.12900
C1812       C  0.57365257  0.03604971  0.06199978     0.62420
F1813       F  0.57031378  0.46174492  0.91497044    -0.22740
F1814       F  0.60074182  0.45126533  0.94983367    -0.20070
F1815       F  0.62050750  0.49615863  0.91952664    -0.19750
F1816       F  0.54603997  0.01782155  0.08039273    -0.19800
F1817       F  0.57322311  0.06094617  0.04671760    -0.20120
F1818       F  0.59720933  0.04664968  0.08764459    -0.22800
C1819       C  0.49710065  0.52919845  0.99369237     0.03280
C1820       C  0.52474288  0.52833813  0.99147581    -0.12870
C1821       C  0.52606201  0.50294691  0.00392969     0.00780
C1822       C  0.99896900  0.97636850  0.01398367    -0.11400
C1823       C  0.97000066  0.97442714  0.01020459     0.03270
C1824       C  0.96963761  0.00152513  0.00148030    -0.10820
H1825       H  0.54583418  0.54771411  0.98125009     0.08860
H1826       H  0.00074117  0.95698523  0.02353432     0.06390
H1827       H  0.94799453  0.00103143  0.00081234     0.06240
C1828       C  0.66465791  0.85950117  0.67145770     0.03280
C1829       C  0.64015156  0.83121720  0.68349792    -0.12870
C1830       C  0.64017096  0.80394960  0.67690050     0.00780
C1831       C  0.66748195  0.80515178  0.66564005    -0.11400
C1832       C  0.69363060  0.83319092  0.65720259     0.03270
C1833       C  0.69126831  0.85972257  0.65739565    -0.10820
H1834       H  0.62008257  0.82954482  0.69673108     0.08860
H1835       H  0.66825578  0.78434631  0.66282190     0.06390
H1836       H  0.71086197  0.88053968  0.64717608     0.06240
C1837       C  0.85437656  0.66368139  0.32849100     0.03280
C1838       C  0.82721983  0.63882493  0.31528215    -0.12870
C1839       C  0.79909067  0.63849469  0.31751414     0.00780
C1840       C  0.79873543  0.66513538  0.32637879    -0.11400
C1841       C  0.82605903  0.69109360  0.33706245     0.03270
C1842       C  0.85312577  0.68940003  0.34041296    -0.10820
H1843       H  0.82724839  0.61879377  0.30548387     0.08860
H1844       H  0.77718071  0.66528160  0.32600522     0.06390
H1845       H  0.87351709  0.70881698  0.35140169     0.06240
C1846       C  0.82630983  0.80553646  0.97094333     0.03280
C1847       C  0.85312376  0.83439166  0.97115555    -0.12870
C1848       C  0.85684809  0.85623971  0.99747768     0.00780
C1849       C  0.83169297  0.84969642  0.02069172    -0.11400
C1850       C  0.80369144  0.82214496  0.01868900     0.03270
C1851       C  0.80151661  0.79946308  0.99477524    -0.10820
H1852       H  0.87134256  0.83922039  0.95151554     0.08860
H1853       H  0.83384654  0.86593150  0.04137093     0.06390
H1854       H  0.78114761  0.77707180  0.99528499     0.06240
C1855       C  0.83942537  0.81269091  0.68758031     0.03280
C1856       C  0.81140598  0.81268551  0.68435599    -0.12870
C1857       C  0.80938336  0.83407588  0.66137640     0.00780
C1858       C  0.83505962  0.85475957  0.64057560    -0.11400
C1859       C  0.86315057  0.85507099  0.64335226     0.03270
C1860       C  0.86539832  0.83406113  0.66707873    -0.10820
H1861       H  0.79134359  0.79635400  0.70011970     0.08860
H1862       H  0.83328336  0.87100124  0.62243467     0.06390
H1863       H  0.88717969  0.83446759  0.66982515     0.06240
C1864       C  0.81137441  0.83880821  0.31837020     0.03280
C1865       C  0.81121183  0.81108204  0.32021483    -0.12870
C1866       C  0.83351855  0.80844853  0.34075508     0.00780
C1867       C  0.85606234  0.83368054  0.35982724    -0.11400
C1868       C  0.85671530  0.86167309  0.35788706     0.03270
C1869       C  0.83372324  0.86387728  0.33808168    -0.10820
H1870       H  0.79405074  0.79165509  0.30502709     0.08860
H1871       H  0.87307827  0.83157981  0.37618959     0.06390
H1872       H  0.83345032  0.88511827  0.33776039     0.06240
C1873       C  0.66618362  0.97192365  0.01516832     0.03280
C1874       C  0.64162943  0.97749605  0.02131452    -0.12870
C1875       C  0.63970390  0.00024865  0.00137610     0.00780
C1876       C  0.66465195  0.52094746  0.97984926    -0.11400
C1877       C  0.69025802  0.51707170  0.97395274     0.03270
C1878       C  0.69003547  0.49146151  0.99022635    -0.10820
H1879       H  0.62348229  0.96379558  0.04088808     0.08860
H1880       H  0.66352673  0.53966275  0.96657820     0.06390
H1881       H  0.70801740  0.48644287  0.98331636     0.06240
C1882       C  0.50628820  0.65563347  0.36762777     0.03280
C1883       C  0.97720108  0.65203267  0.35998800    -0.12870
C1884       C  0.97338271  0.66914177  0.33185035     0.00780
C1885       C  0.49858725  0.68754192  0.30880467    -0.11400
C1886       C  0.52834302  0.69328678  0.31753166     0.03270
C1887       C  0.53216828  0.67772672  0.34761808    -0.10820
H1888       H  0.95751453  0.63586082  0.37626323     0.08860
H1889       H  0.49538538  0.69833136  0.28462385     0.06390
H1890       H  0.55498630  0.68237255  0.35532454     0.06240
C1891       C  0.66334451  0.96726152  0.31833100     0.03280
C1892       C  0.68943278  0.99628224  0.31505243    -0.12870
C1893       C  0.69071435  0.52081351  0.33377067     0.00780
C1894       C  0.66582631  0.51645921  0.35582014    -0.11400
C1895       C  0.63961437  0.98751810  0.35956702     0.03270
C1896       C  0.63812970  0.96287994  0.34028446    -0.10820
H1897       H  0.70864376  0.99984044  0.29757402     0.08860
H1898       H  0.66672328  0.53570677  0.36983651     0.06390
H1899       H  0.61746008  0.94069521  0.34185677     0.06240
O1900       O  0.62003585  0.81200218  0.12455971    -0.81650
C1901       C  0.72005422  0.83714751  0.21964160     0.97700
O1902       O  0.70422429  0.81284020  0.20175761    -0.70770
O1903       O  0.64512928  0.78663257  0.21464807    -0.74360
Al1904     Al  0.66840236  0.79879448  0.17044715     1.48980
C1905       C  0.61953256  0.78512526  0.21980212     0.92960
O1906       O  0.64430699  0.85867954  0.21061695    -0.80580
O1907       O  0.69649674  0.88222720  0.12143902    -0.74140
Al1908     Al  0.63438155  0.83539945  0.16770210     1.90120
O1909       O  0.69198565  0.89253398  0.19571821    -0.73210
O1910       O  0.72727785  0.85356755  0.13806151    -0.73060
O1911       O  0.71896006  0.86083561  0.21185680    -0.78720
O1912       O  0.69189055  0.80650363  0.12637948    -0.76920
O1913       O  0.66949453  0.83446351  0.16823311    -1.13060
O1914       O  0.63175513  0.77699581  0.14013005    -0.72250
C1915       C  0.61631001  0.78573717  0.12095306     0.98470
C1916       C  0.66773936  0.88439340  0.21474217     0.94860
Al1917     Al  0.70560871  0.86928832  0.16681509     1.55560
O1918       O  0.61153588  0.80041212  0.19953470    -0.76870
C1919       C  0.71845132  0.82896118  0.12082883     0.99030
C1920       C  0.67335325  0.88541871  0.11615672     0.93910
O1921       O  0.64937336  0.87067233  0.13600413    -0.82190
C1922       C  0.98227311  0.67885360  0.97744579     0.03280
C1923       C  0.98101514  0.65059193  0.98156298    -0.12870
C1924       C  0.50118058  0.64638352  0.00441962     0.00780
C1925       C  0.52126305  0.67074003  0.02667144    -0.11400
C1926       C  0.52479092  0.69985516  0.02158563     0.03270
C1927       C  0.50555112  0.70401185  0.99649464    -0.10820
H1928       H  0.96414418  0.63149466  0.96606283     0.08860
H1929       H  0.53422531  0.66730279  0.04811101     0.06360
H1930       H  0.50885195  0.72653426  0.99218418     0.06240
C1931       C  0.64994911  0.50751108  0.63762032     0.03280
C1932       C  0.64842882  0.97946831  0.64387352    -0.12870
C1933       C  0.66778064  0.97659502  0.66978199     0.00780
C1934       C  0.68690457  0.50173318  0.69149176    -0.11400
C1935       C  0.68993452  0.53042470  0.68437320     0.03270
C1936       C  0.67161510  0.53326061  0.65689769    -0.10820
H1937       H  0.63203091  0.95981503  0.62844523     0.08860
H1938       H  0.69994805  0.49922586  0.71370881     0.06390
H1939       H  0.67426944  0.55526312  0.65009099     0.06240
C1940       C  0.99455175  0.64153449  0.64044935     0.03280
C1941       C  0.52156106  0.67015427  0.64044801    -0.12870
C1942       C  0.52265065  0.69441365  0.65983043     0.00780
C1943       C  0.99602222  0.69094271  0.67704246    -0.11400
C1944       C  0.96823046  0.66328361  0.67519666     0.03270
C1945       C  0.96772693  0.63834921  0.65776991    -0.10820
H1946       H  0.54213062  0.67341494  0.62630995     0.08860
H1947       H  0.99720815  0.70938357  0.69323880     0.06390
H1948       H  0.94672438  0.61639799  0.65860109     0.06240
O1949       O  0.80767203  0.61604492  0.87441146    -0.81650
C1950       C  0.83770601  0.71938400  0.78240596     0.97700
O1951       O  0.81335060  0.70389549  0.80122381    -0.70770
O1952       O  0.78499786  0.64559079  0.78529034    -0.74360
Al1953     Al  0.79801908  0.66712735  0.83028324     1.48980
C1954       C  0.78248299  0.61998998  0.77926548     0.92960
O1955       O  0.85562240  0.63961297  0.78663523    -0.80580
O1956       O  0.88248607  0.68978763  0.87521219    -0.74140
Al1957     Al  0.83204563  0.63034922  0.83047406     1.90120
O1958       O  0.89093519  0.68644219  0.79940742    -0.73210
O1959       O  0.85562144  0.72246840  0.86192692    -0.73060
O1960       O  0.86085524  0.71606503  0.78697574    -0.78720
O1961       O  0.80713777  0.68920929  0.87494127    -0.76920
O1962       O  0.83320488  0.66612015  0.83062774    -1.13060
O1963       O  0.77444207  0.63030746  0.85927466    -0.72250
C1964       C  0.78120296  0.61313495  0.87775890     0.98470
C1965       C  0.88158343  0.66259284  0.78042674     0.94860
Al1966     Al  0.86941570  0.70069609  0.83093368     1.55560
O1967       O  0.79650431  0.61024942  0.79927503    -0.76870
C1968       C  0.83105325  0.71463893  0.88010750     0.99030
C1969       C  0.88376445  0.66581291  0.88079253     0.93910
O1970       O  0.86775924  0.64279750  0.86118007    -0.82190
O1971       O  0.97522799  0.52393175  0.54438900    -0.81650
C1972       C  0.54972374  0.49862968  0.44753888     0.97700
O1973       O  0.55867489  0.52304098  0.46560348    -0.70770
O1974       O  0.52635026  0.55182339  0.45406613    -0.74360
Al1975     Al  0.53671516  0.53747351  0.49747439     1.48980
C1976       C  0.50343821  0.55585244  0.45191661     0.92960
O1977       O  0.95118274  0.97961269  0.45615530    -0.80580
O1978       O  0.97988845  0.95353158  0.54335917    -0.74140
Al1979     Al  0.96553453  0.50195065  0.50024487     1.90120
O1980       O  0.96404632  0.94508205  0.46974934    -0.73210
O1981       O  0.53914778  0.98144223  0.52587371    -0.73060
O1982       O  0.52308297  0.97624756  0.45257569    -0.78720
O1983       O  0.55131374  0.52789987  0.54095207    -0.76920
O1984       O  0.50128043  0.50223117  0.49847118    -1.13060
O1985       O  0.52231766  0.55901209  0.52922489    -0.72250
C1986       C  0.99781078  0.55027037  0.54822278     0.98470
C1987       C  0.94785315  0.95352566  0.45173904     0.94860
Al1988     Al  0.50150591  0.96711268  0.49794935     1.55560
O1989       O  0.97926529  0.53890658  0.47072038    -0.76870
C1990       C  0.55486361  0.50512703  0.54478521     0.99030
C1991       C  0.95363191  0.95035878  0.54939707     0.93910
O1992       O  0.94428283  0.96555608  0.53092967    -0.82190
C1993       C  0.93766168  0.64428730  0.73208991    -0.05630
C1994       C  0.94196548  0.65932065  0.69817743     0.00290
C1995       C  0.92426485  0.67336944  0.68962900    -0.08280
C1996       C  0.90463863  0.67418693  0.71714987    -0.05660
C1997       C  0.90179089  0.66061229  0.75200035     0.00280
C1998       C  0.91765421  0.64452357  0.75909298    -0.08190
C1999       C  0.91494723  0.62933558  0.79602474     0.62190
H2000       H  0.95132987  0.63355952  0.73786081     0.12880
H2001       H  0.89152909  0.68548930  0.71174848     0.12900
C2002       C  0.92551736  0.68652210  0.65140916     0.62420
F2003       F  0.93313859  0.61582440  0.79769417    -0.22740
F2004       F  0.88465792  0.60699032  0.80249917    -0.20070
F2005       F  0.92447454  0.65119275  0.82307165    -0.19750
F2006       F  0.91872758  0.66439059  0.62520207    -0.19800
F2007       F  0.95459074  0.71080797  0.64437749    -0.20120
F2008       F  0.90450812  0.69664217  0.64784564    -0.22800
C2009       C  0.96952877  0.59824786  0.59741244    -0.05630
C2010       C  0.99422840  0.61547402  0.62113033     0.00290
C2011       C  0.51864952  0.60875726  0.62348522    -0.08280
C2012       C  0.51960316  0.58839845  0.59805411    -0.05660
C2013       C  0.99501740  0.57136936  0.57412213     0.00280
C2014       C  0.96864538  0.57524907  0.57513208    -0.08190
C2015       C  0.93954266  0.55569912  0.55302207     0.62190
H2016       H  0.95083993  0.60320006  0.59619019     0.12880
H2017       H  0.53915462  0.58467127  0.59811702     0.12900
C2018       C  0.54332171  0.62117386  0.65312765     0.62420
F2019       F  0.91831620  0.56558956  0.55590336    -0.22740
F2020       F  0.92541419  0.52607154  0.56600494    -0.20070
F2021       F  0.94651829  0.55626648  0.51611835    -0.19750
F2022       F  0.53530143  0.63284581  0.68283645    -0.19800
F2023       F  0.57086467  0.64360949  0.63794268    -0.20120
F2024       F  0.54767680  0.59797484  0.66682860    -0.22800
C2025       C  0.60273812  0.50316972  0.55312472    -0.05630
C2026       C  0.57940604  0.50703833  0.56927963     0.00290
C2027       C  0.58058349  0.51331014  0.60750043    -0.08280
C2028       C  0.60451545  0.51398118  0.62872963    -0.05660
C2029       C  0.62730284  0.50915053  0.61270608     0.00280
C2030       C  0.62707880  0.50458761  0.57411211    -0.08190
C2031       C  0.65281254  0.00210120  0.55500404     0.62190
H2032       H  0.60190669  0.99932292  0.52366680     0.12880
H2033       H  0.60538814  0.51779504  0.65825637     0.12900
C2034       C  0.55621350  0.51833658  0.62587268     0.62420
F2035       F  0.65120731  0.00380073  0.51690374    -0.22740
F2036       F  0.65090152  0.97464358  0.56402010    -0.20070
F2037       F  0.68118039  0.52569686  0.56586402    -0.19750
F2038       F  0.52727423  0.99372330  0.61932261    -0.19800
F2039       F  0.55774201  0.54450053  0.61170927    -0.20120
F2040       F  0.56021112  0.52156986  0.66377918    -0.22800
C2041       C  0.74422795  0.56183665  0.70310608    -0.05630
C2042       C  0.71403633  0.55712632  0.70453447     0.00290
C2043       C  0.70731965  0.57523507  0.72825413    -0.08280
C2044       C  0.73123622  0.59716804  0.75008272    -0.05660
C2045       C  0.76069346  0.60006477  0.75078822     0.00280
C2046       C  0.76761963  0.58254734  0.72638407    -0.08190
C2047       C  0.79940987  0.58554769  0.72468585     0.62190
H2048       H  0.74892675  0.54789995  0.68465003     0.12880
H2049       H  0.72656095  0.61107974  0.76860722     0.12900
C2050       C  0.67491651  0.57047118  0.73239462     0.62420
F2051       F  0.80216234  0.56968894  0.69533457    -0.22740
F2052       F  0.80484903  0.57401054  0.75683044    -0.20070
F2053       F  0.82170496  0.61585549  0.72025608    -0.19750
F2054       F  0.65394531  0.53996123  0.73859260    -0.19800
F2055       F  0.66693629  0.58037595  0.70077316    -0.20120
F2056       F  0.67273095  0.58655879  0.76186517    -0.22800
C2057       C  0.91524621  0.68726748  0.93783616    -0.05630
C2058       C  0.90580317  0.66598240  0.90898870     0.00290
C2059       C  0.92150416  0.64930675  0.90527414    -0.08280
C2060       C  0.95091407  0.66161854  0.92062234    -0.05660
C2061       C  0.95899494  0.68013099  0.95211295     0.00280
C2062       C  0.93963144  0.69223321  0.96194518    -0.08190
C2063       C  0.94326158  0.70905334  0.99777342     0.62190
H2064       H  0.90247363  0.69897311  0.94246974     0.12880
H2065       H  0.96499523  0.65186157  0.91251798     0.12900
C2066       C  0.90670740  0.61572720  0.89557397     0.62420
F2067       F  0.91788483  0.71243721  0.00478296    -0.22740
F2068       F  0.96895551  0.73778397  0.99569685    -0.20070
F2069       F  0.94602647  0.69297736  0.02727791    -0.19750
F2070       F  0.92471242  0.61143487  0.87005322    -0.19800
F2071       F  0.87701787  0.60297174  0.88256447    -0.20120
F2072       F  0.90549174  0.59965645  0.92733485    -0.22800
C2073       C  0.53964889  0.72580582  0.08163657    -0.05630
C2074       C  0.54772691  0.72503712  0.04469504     0.00290
C2075       C  0.57825016  0.74551417  0.03227080    -0.08280
C2076       C  0.60025582  0.76492919  0.05807057    -0.05660
C2077       C  0.59237165  0.76468578  0.09530501     0.00280
C2078       C  0.56139993  0.74575048  0.10712103    -0.08190
C2079       C  0.55146988  0.74660518  0.14654160     0.62190
H2080       H  0.51618098  0.71011442  0.09050502     0.12880
H2081       H  0.62386997  0.78034928  0.04946737     0.12900
C2082       C  0.58760218  0.74659304  0.99215422     0.62420
F2083       F  0.52025783  0.72672054  0.15220723    -0.22740
F2084       F  0.55729800  0.77564999  0.15440810    -0.20070
F2085       F  0.56766403  0.73853931  0.17067884    -0.19750
F2086       F  0.56899700  0.75278499  0.96968183    -0.19800
F2087       F  0.58448243  0.71895283  0.98259773    -0.20120
F2088       F  0.61799242  0.76885573  0.98568943    -0.22800
C2089       C  0.68477658  0.91322451  0.27284646    -0.05630
C2090       C  0.66602448  0.90519162  0.24149067     0.00290
C2091       C  0.64484139  0.91587036  0.23698107    -0.08280
C2092       C  0.64317256  0.93442373  0.26439545    -0.05660
C2093       C  0.66202248  0.94263853  0.29566139     0.00280
C2094       C  0.68275765  0.93142374  0.30056044    -0.08190
C2095       C  0.70310332  0.93791238  0.33427638     0.62190
H2096       H  0.70066029  0.90464031  0.27609125     0.12880
H2097       H  0.62799426  0.94378283  0.26092507     0.12900
C2098       C  0.62525572  0.90905542  0.20246847     0.62420
F2099       F  0.69986038  0.91087382  0.34806520    -0.22740
F2100       F  0.69570939  0.95137933  0.36254991    -0.20070
F2101       F  0.73359893  0.95688960  0.32407202    -0.19750
F2102       F  0.60425614  0.87824601  0.20084370    -0.19800
F2103       F  0.64407369  0.91799099  0.17139223    -0.20120
F2104       F  0.60883066  0.92442032  0.20196306    -0.22800
C2105       C  0.58677609  0.98016425  0.43924444    -0.05630
C2106       C  0.57133130  0.99428432  0.42350049     0.00290
C2107       C  0.57485100  0.50113857  0.38517542    -0.08280
C2108       C  0.59591275  0.49649953  0.36455499    -0.05660
C2109       C  0.61311715  0.98474276  0.38096155     0.00280
C2110       C  0.60787456  0.97535616  0.41851055    -0.08190
C2111       C  0.62483675  0.96078434  0.43639410     0.62190
H2112       H  0.58240569  0.97321924  0.46805265     0.12880
H2113       H  0.60045390  0.50363826  0.33575953     0.12900
C2114       C  0.55870809  0.51595113  0.36688725     0.62420
F2115       F  0.61571399  0.95235944  0.47281711    -0.22740
F2116       F  0.65627219  0.98102206  0.43566407    -0.20070
F2117       F  0.61878662  0.93491557  0.41725248    -0.19750
F2118       F  0.57161503  0.54490399  0.38049741    -0.19800
F2119       F  0.52741792  0.49967392  0.37477334    -0.20120
F2120       F  0.56251078  0.51800104  0.32881193    -0.22800
C2121       C  0.55775160  0.74634169  0.29466058    -0.05630
C2122       C  0.55491525  0.71730850  0.29611989     0.00290
C2123       C  0.57467934  0.71133126  0.27398204    -0.08280
C2124       C  0.59628282  0.73473844  0.25067426    -0.05660
C2125       C  0.59794205  0.76323181  0.24778455     0.00280
C2126       C  0.57859177  0.76937100  0.27046110    -0.08190
C2127       C  0.57980891  0.79994213  0.26944993     0.62190
H2128       H  0.54248200  0.75044182  0.31186439     0.12880
H2129       H  0.61138660  0.73051963  0.23327999     0.12900
C2130       C  0.57231149  0.68022761  0.27352702     0.62420
F2131       F  0.56194226  0.80214702  0.29723296    -0.22740
F2132       F  0.56878132  0.80383368  0.23598410    -0.20070
F2133       F  0.60988895  0.82315697  0.27412552    -0.19750
F2134       F  0.54204996  0.65774144  0.26788435    -0.19800
F2135       F  0.58250724  0.67482571  0.30670252    -0.20120
F2136       F  0.59018620  0.67824001  0.24558395    -0.22800
C2137       C  0.99121200  0.59763782  0.44463064    -0.05630
C2138       C  0.50560280  0.58221374  0.43002860     0.00290
C2139       C  0.52305109  0.59377456  0.39683685    -0.08280
C2140       C  0.52352917  0.61849290  0.37833954    -0.05660
C2141       C  0.50868956  0.63343090  0.39268760     0.00280
C2142       C  0.99340752  0.62371386  0.42747621    -0.08190
C2143       C  0.97986776  0.64027835  0.44829678     0.62190
H2144       H  0.97940802  0.59028722  0.47089709     0.12880
H2145       H  0.53518896  0.62606804  0.35182649     0.12900
C2146       C  0.54135147  0.58040528  0.38092511     0.62420
F2147       F  0.98928878  0.64385457  0.48478805    -0.22740
F2148       F  0.94798384  0.62316740  0.44751589    -0.20070
F2149       F  0.98926069  0.66899607  0.43388096    -0.19750
F2150       F  0.52225753  0.54934808  0.37754081    -0.19800
F2151       F  0.56564240  0.58702231  0.40445034    -0.20120
F2152       F  0.55357771  0.59230824  0.34628734    -0.22800
C2153       C  0.69678840  0.95403996  0.05130408    -0.05630
C2154       C  0.66796315  0.94721562  0.03662773     0.00290
C2155       C  0.64179690  0.91829485  0.04557561    -0.08280
C2156       C  0.64494000  0.89943525  0.07180707    -0.05660
C2157       C  0.67351554  0.90654185  0.08699247     0.00280
C2158       C  0.70028668  0.93391182  0.07547324    -0.08190
C2159       C  0.73231827  0.94260694  0.08927174     0.62190
H2160       H  0.71668072  0.97592009  0.04460162     0.12880
H2161       H  0.62461131  0.87824892  0.08001123     0.12900
C2162       C  0.61027155  0.90559687  0.02790620     0.62420
F2163       F  0.75466127  0.97077356  0.07569732    -0.22740
F2164       F  0.74009769  0.92133323  0.07772638    -0.20070
F2165       F  0.73291617  0.94389511  0.12747614    -0.19750
F2166       F  0.61216742  0.91876378  0.99378514    -0.19800
F2167       F  0.59080576  0.91005183  0.05100410    -0.20120
F2168       F  0.59733708  0.87460387  0.02233049    -0.22800
C2169       C  0.76763991  0.58039120  0.93457486    -0.05630
C2170       C  0.75764019  0.58841940  0.90216803     0.00290
C2171       C  0.72592214  0.57122939  0.89254932    -0.08280
C2172       C  0.70584800  0.54647540  0.91522152    -0.05660
C2173       C  0.71534631  0.53930355  0.94855955     0.00280
C2174       C  0.74698015  0.55660779  0.95853790    -0.08190
C2175       C  0.75911723  0.55080744  0.99443075     0.62190
H2176       H  0.79192019  0.59334557  0.94134799     0.12880
H2177       H  0.68180812  0.53290250  0.90768827     0.12900
C2178       C  0.71293758  0.57830152  0.85828072     0.62420
F2179       F  0.78887664  0.57384303  0.00161121    -0.22740
F2180       F  0.75972773  0.52391233  0.99218736    -0.20070
F2181       F  0.74062519  0.54914757  0.02389814    -0.19750
F2182       F  0.72871162  0.57739518  0.82744799    -0.19800
F2183       F  0.71574748  0.60678166  0.86119055    -0.20120
F2184       F  0.68194238  0.55751143  0.85330494    -0.22800
C2185       C  0.87096920  0.89852820  0.40823920    -0.05630
C2186       C  0.88070676  0.88815005  0.37813552     0.00290
C2187       C  0.91277737  0.90137583  0.37045000    -0.08280
C2188       C  0.93399390  0.92246588  0.39542967    -0.05660
C2189       C  0.92421984  0.93219590  0.42607104     0.00280
C2190       C  0.89222820  0.92064479  0.43230622    -0.08190
C2191       C  0.88046164  0.93040645  0.46520060     0.62190
H2192       H  0.84640826  0.88830292  0.41345527     0.12880
H2193       H  0.95854882  0.93191614  0.39056485     0.12900
C2194       C  0.92600370  0.89487973  0.33618832     0.62420
F2195       F  0.84852055  0.91552954  0.46662851    -0.22740
F2196       F  0.89107374  0.96132935  0.46296099    -0.20070
F2197       F  0.89065261  0.92375690  0.49759261    -0.19750
F2198       F  0.94634460  0.92213102  0.31878110    -0.19800
F2199       F  0.90376381  0.87728515  0.31072663    -0.20120
F2200       F  0.94197381  0.88023964  0.34652406    -0.22800
C2201       C  0.75692100  0.82299481  0.30399132    -0.05630
C2202       C  0.78839947  0.84123870  0.29488611     0.00290
C2203       C  0.79710193  0.85915176  0.26201612    -0.08280
C2204       C  0.77381333  0.85877394  0.23996376    -0.05660
C2205       C  0.74245608  0.83897517  0.24756906     0.00280
C2206       C  0.73363447  0.82137107  0.28055703    -0.08190
C2207       C  0.69989604  0.80174860  0.29124846     0.62190
H2208       H  0.75075242  0.80939441  0.32919363     0.12880
H2209       H  0.77995779  0.87331726  0.21574408     0.12900
C2210       C  0.83052405  0.87696335  0.24885919     0.62420
F2211       F  0.69635557  0.78901164  0.32624811    -0.22740
F2212       F  0.68526991  0.77837463  0.26632152    -0.20070
F2213       F  0.68576739  0.81930383  0.29107508    -0.19750
F2214       F  0.84293797  0.85791874  0.24773718    -0.19800
F2215       F  0.84769299  0.90074162  0.27244141    -0.20120
F2216       F  0.83306790  0.88913920  0.21369802    -0.22800
C2217       C  0.90213424  0.90902413  0.63238641    -0.05630
C2218       C  0.88987855  0.87855540  0.62189836     0.00290
C2219       C  0.89974745  0.87178592  0.58839596    -0.08280
C2220       C  0.92154060  0.89604578  0.56616952    -0.05660
C2221       C  0.93268810  0.92651324  0.57587806     0.00280
C2222       C  0.92331409  0.93324568  0.60969791    -0.08190
C2223       C  0.93502551  0.96581855  0.62117494     0.62190
H2224       H  0.89381793  0.91367388  0.65781747     0.12880
H2225       H  0.92918998  0.89145799  0.54018863     0.12900
C2226       C  0.88625195  0.83920110  0.57549146     0.62420
F2227       F  0.92496335  0.96751296  0.65631295    -0.22740
F2228       F  0.92436108  0.97940552  0.59664821    -0.20070
F2229       F  0.96693309  0.98171670  0.62090477    -0.19750
F2230       F  0.85454426  0.82586057  0.57234653    -0.19800
F2231       F  0.89303813  0.82272928  0.60071541    -0.20120
F2232       F  0.89806629  0.83772297  0.54139853    -0.22800
C2233       C  0.83632306  0.76260708  0.69638890    -0.05630
C2234       C  0.84108455  0.78986077  0.71204632     0.00290
C2235       C  0.84566169  0.79414526  0.75067521    -0.08280
C2236       C  0.84488895  0.77063804  0.77256446    -0.05660
C2237       C  0.83969131  0.74327832  0.75698897     0.00280
C2238       C  0.83538151  0.73901740  0.71842320    -0.08190
C2239       C  0.82910750  0.70938859  0.70107471     0.62190
H2240       H  0.83269493  0.75973662  0.66682028     0.12880
H2241       H  0.84791842  0.77323134  0.80225143     0.12900
C2242       C  0.85098703  0.82327897  0.76865344     0.62420
F2243       F  0.82530938  0.70962051  0.66316629    -0.22740
F2244       F  0.80249574  0.68548855  0.71624634    -0.20070
F2245       F  0.85358803  0.70463693  0.70781994    -0.19750
F2246       F  0.82511652  0.82619323  0.76438368    -0.19800
F2247       F  0.87611328  0.84804246  0.75225156    -0.20120
F2248       F  0.85672202  0.82352891  0.80615639    -0.22800
C2249       C  0.84211436  0.76692184  0.96064673    -0.05630
C2250       C  0.82575499  0.78112516  0.94799644     0.00290
C2251       C  0.81112313  0.77324717  0.91316513    -0.08280
C2252       C  0.81271199  0.75069403  0.89240115    -0.05660
C2253       C  0.82930065  0.73675027  0.90487714     0.00280
C2254       C  0.84442841  0.74498363  0.93933607    -0.08190
C2255       C  0.86318041  0.73089168  0.95302437     0.62190
H2256       H  0.85363651  0.77368919  0.98708829     0.12880
H2257       H  0.80165597  0.74428598  0.86565305     0.12900
C2258       C  0.79476284  0.78928486  0.89764877     0.62420
F2259       F  0.87444384  0.74041904  0.98826857    -0.22740
F2260       F  0.88799950  0.73926472  0.92942986    -0.20070
F2261       F  0.84501650  0.69948118  0.95383988    -0.19750
F2262       F  0.81511175  0.82031208  0.89554714    -0.19800
F2263       F  0.77025255  0.78378260  0.92040361    -0.20120
F2264       F  0.78341734  0.77932525  0.86253614    -0.22800
C2265       C  0.78590761  0.82288525  0.08187669    -0.05630
C2266       C  0.77838367  0.81781089  0.04429388     0.00290
C2267       C  0.75025916  0.81534349  0.03194811    -0.08280
C2268       C  0.73087741  0.81843177  0.05795941    -0.05660
C2269       C  0.73969317  0.82569413  0.09498334     0.00280
C2270       C  0.76771497  0.82800187  0.10712906    -0.08190
C2271       C  0.77907532  0.83697219  0.14623715     0.62190
H2272       H  0.80755975  0.82493979  0.09075301     0.12880
H2273       H  0.70909857  0.81620168  0.04934887     0.12900
C2274       C  0.74114662  0.81044305  0.99152444     0.62420
F2275       F  0.80618963  0.83661416  0.15281076    -0.22740
F2276       F  0.75706201  0.81697633  0.17102411    -0.20070
F2277       F  0.78477864  0.86623000  0.15196071    -0.19750
F2278       F  0.73539587  0.78194094  0.98111468    -0.19800
F2279       F  0.76461955  0.83245239  0.96972310    -0.20120
F2280       F  0.71470613  0.81207422  0.98502146    -0.22800
C2281       C  0.85118212  0.74548511  0.32080355    -0.05630
C2282       C  0.82783229  0.72103827  0.34122110     0.00290
C2283       C  0.80711311  0.72592719  0.36311488    -0.08280
C2284       C  0.80957635  0.75482381  0.36184829    -0.05660
C2285       C  0.83314374  0.77913974  0.34167430     0.00280
C2286       C  0.85459351  0.77464242  0.32113518    -0.08190
C2287       C  0.88084902  0.80036337  0.29942969     0.62190
H2288       H  0.86677537  0.74144260  0.30412257     0.12880
H2289       H  0.79320180  0.75868966  0.37717683     0.12900
C2290       C  0.78236280  0.70168680  0.38801655     0.62420
F2291       F  0.89698083  0.79020298  0.27831505    -0.22740
F2292       F  0.90137549  0.82163001  0.32372036    -0.20070
F2293       F  0.86948469  0.81405852  0.27584850    -0.19750
F2294       F  0.78965354  0.67981210  0.39899425    -0.19800
F2295       F  0.75452264  0.68790241  0.36954439    -0.20120
F2296       F  0.77894308  0.71475388  0.41981528    -0.22800
C2297       C  0.91132942  0.69148062  0.32060196    -0.05630
C2298       C  0.88434327  0.66376633  0.32887120     0.00290
C2299       C  0.88720962  0.63778958  0.33746197    -0.08280
C2300       C  0.91611285  0.63995982  0.33274422    -0.05660
C2301       C  0.94325619  0.66818569  0.32777582     0.00280
C2302       C  0.94081171  0.69486253  0.32369425    -0.08190
C2303       C  0.96822978  0.72714713  0.32550244     0.62190
H2304       H  0.90954113  0.71125454  0.31298207     0.12880
H2305       H  0.91776183  0.61953142  0.33597482     0.12900
C2306       C  0.86180516  0.60845089  0.35492875     0.62420
F2307       F  0.95889959  0.74760889  0.33578712    -0.22740
F2308       F  0.98241871  0.73628111  0.29125120    -0.20070
F2309       F  0.98925395  0.72896297  0.35165071    -0.19750
F2310       F  0.84684957  0.58696975  0.32787878    -0.19800
F2311       F  0.84078404  0.61317588  0.37440476    -0.20120
F2312       F  0.87428949  0.59677271  0.38000785    -0.22800
C2313       C  0.76649345  0.59182389  0.35261041    -0.05630
C2314       C  0.77050968  0.60885351  0.32015991     0.00290
C2315       C  0.74828611  0.59702636  0.29185136    -0.08280
C2316       C  0.72206968  0.56811008  0.29739716    -0.05660
C2317       C  0.71818839  0.55116680  0.32998622     0.00280
C2318       C  0.74084272  0.56279612  0.35782404    -0.08190
C2319       C  0.73829136  0.54428839  0.39234639     0.62190
H2320       H  0.78389071  0.60153323  0.37388698     0.12880
H2321       H  0.70448540  0.55836731  0.27631232     0.12900
C2322       C  0.75273718  0.61456722  0.25597880     0.62420
F2323       F  0.76403436  0.55916469  0.41458181    -0.22740
F2324       F  0.73547327  0.51672897  0.38239086    -0.20070
F2325       F  0.71272462  0.53898714  0.41293702    -0.19750
F2326       F  0.78029880  0.62080877  0.23943591    -0.19800
F2327       F  0.75342287  0.64165822  0.26303816    -0.20120
F2328       F  0.72911828  0.59826032  0.23130346    -0.22800
C2329       C  0.75729730  0.81492757  0.63535282    -0.05630
C2330       C  0.78047274  0.83516385  0.65904427     0.00290
C2331       C  0.77629131  0.85674438  0.67890473    -0.08280
C2332       C  0.74796543  0.85607810  0.67598895    -0.05660
C2333       C  0.72428329  0.83539232  0.65290637     0.00280
C2334       C  0.72960988  0.81541834  0.63076142    -0.08190
C2335       C  0.70754569  0.79490213  0.60141214     0.62190
H2336       H  0.76127894  0.79913730  0.61948783     0.12880
H2337       H  0.74372364  0.87120213  0.69280090     0.12900
C2338       C  0.80139618  0.87995025  0.70363159     0.62420
F2339       F  0.72381014  0.79786797  0.56913879    -0.22740
F2340       F  0.68494474  0.80206540  0.59282768    -0.20070
F2341       F  0.69369459  0.76492838  0.61351423    -0.19750
F2342       F  0.82723908  0.89893399  0.68265272    -0.19800
F2343       F  0.80923271  0.86516170  0.73008332    -0.20120
F2344       F  0.79198957  0.89793972  0.72171176    -0.22800
C2345       C  0.69208898  0.91619891  0.67774425    -0.05630
C2346       C  0.66361461  0.88888399  0.67400860     0.00290
C2347       C  0.63632204  0.89144044  0.67080849    -0.08280
C2348       C  0.63903686  0.92031193  0.67419202    -0.05660
C2349       C  0.66765893  0.94720373  0.67375804     0.00280
C2350       C  0.69489611  0.94507973  0.67371534    -0.08190
C2351       C  0.72692609  0.97228078  0.66650322     0.62190
H2352       H  0.71295899  0.91529028  0.68248879     0.12880
H2353       H  0.61836386  0.92217392  0.67488812     0.12900
C2354       C  0.60442574  0.86556986  0.66085001     0.62420
F2355       F  0.74688405  0.96302169  0.65308770    -0.22740
F2356       F  0.73913313  0.48787132  0.69888728    -0.20070
F2357       F  0.72578797  0.99169248  0.64013461    -0.19750
F2358       F  0.58886210  0.84934777  0.69228986    -0.19800
F2359       F  0.60672611  0.84685064  0.63521514    -0.20120
F2360       F  0.58660174  0.87644364  0.64472483    -0.22800
C2361       C  0.58860672  0.77526783  0.65026681    -0.05630
C2362       C  0.61030622  0.77510995  0.67474654     0.00290
C2363       C  0.60320469  0.74786477  0.69409114    -0.08280
C2364       C  0.57439758  0.72174320  0.68784054    -0.05660
C2365       C  0.55238936  0.72263069  0.66452046     0.00280
C2366       C  0.55939061  0.74981276  0.64556485    -0.08190
C2367       C  0.53610222  0.75227475  0.62100894     0.62190
H2368       H  0.59485634  0.79568934  0.63446097     0.12880
H2369       H  0.56872319  0.70041863  0.70153612     0.12900
C2370       C  0.62550375  0.74535448  0.72037216     0.62420
F2371       F  0.54930860  0.77936567  0.60097987    -0.22740
F2372       F  0.51296537  0.75129474  0.64287323    -0.20070
F2373       F  0.52353630  0.72859069  0.59616534    -0.19750
F2374       F  0.64411290  0.77261284  0.73791054    -0.19800
F2375       F  0.64375668  0.73684748  0.70085830    -0.20120
F2376       F  0.60960346  0.72353876  0.74755529    -0.22800
C2377       C  0.88494790  0.91187332  0.01163992    -0.05630
C2378       C  0.88655915  0.88583469  0.00173424     0.00290
C2379       C  0.91629225  0.88868997  0.99916121    -0.08280
C2380       C  0.94240159  0.91799325  0.00003043    -0.05660
C2381       C  0.94085519  0.94374805  0.01171481     0.00280
C2382       C  0.91127360  0.93926948  0.02144219    -0.08190
C2383       C  0.90570333  0.96061666  0.04525772     0.62190
H2384       H  0.86269544  0.91044944  0.01451720     0.12880
H2385       H  0.96431470  0.92021985  0.99215414     0.12900
C2386       C  0.92194358  0.86184014  0.99806228     0.62420
F2387       F  0.88415694  0.94392110  0.07252973    -0.22740
F2388       F  0.89405110  0.97522372  0.02374769    -0.20070
F2389       F  0.93208067  0.98182823  0.06309127    -0.19750
F2390       F  0.92434603  0.85482084  0.96181065    -0.19800
F2391       F  0.89876937  0.83654633  0.01620194    -0.20120
F2392       F  0.94927036  0.86902673  0.01580263    -0.22800
C2393       C  0.97295321  0.58973587  0.99621782    -0.05630
C2394       C  0.50107985  0.61664701  0.00339238     0.00290
C2395       C  0.52851448  0.61469215  0.00316980    -0.08280
C2396       C  0.52571912  0.58577489  0.00261593    -0.05660
C2397       C  0.49813619  0.55947024  0.99229871     0.00280
C2398       C  0.97230080  0.56307582  0.98454628    -0.08190
C2399       C  0.94586343  0.54247995  0.95943876     0.62190
H2400       H  0.95151110  0.59013188  0.99550708     0.12880
H2401       H  0.54600981  0.58445891  0.00934837     0.12900
C2402       C  0.56075500  0.64208104  0.99853206     0.62420
F2403       F  0.94145139  0.56011256  0.93329522    -0.22740
F2404       F  0.91897961  0.52651700  0.97993988    -0.20070
F2405       F  0.95179889  0.52246782  0.94020583    -0.19750
F2406       F  0.57178589  0.65665573  0.03174275    -0.19800
F2407       F  0.56021568  0.66189699  0.97244176    -0.20120
F2408       F  0.58148241  0.63355105  0.98579204    -0.22800
C2409       C  0.56135387  0.98880431  0.97486692    -0.05630
C2410       C  0.55574800  0.50344235  0.00388962     0.00290
C2411       C  0.57820111  0.51817373  0.03162237    -0.08280
C2412       C  0.60530580  0.51625384  0.03032491    -0.05660
C2413       C  0.61083623  0.50144320  0.00130605     0.00280
C2414       C  0.58905316  0.98825531  0.97243659    -0.08190
C2415       C  0.59515036  0.97417467  0.93886747     0.62190
H2416       H  0.54395534  0.97831846  0.95367645     0.12880
H2417       H  0.62267946  0.52675770  0.05152006     0.12900
C2418       C  0.57365255  0.53604970  0.06199982     0.62420
F2419       F  0.57031377  0.96174489  0.91497043    -0.22740
F2420       F  0.60074181  0.95126529  0.94983366    -0.20070
F2421       F  0.62050750  0.99615859  0.91952662    -0.19750
F2422       F  0.54603994  0.51782154  0.08039275    -0.19800
F2423       F  0.57322310  0.56094618  0.04671765    -0.20120
F2424       F  0.59720929  0.54664966  0.08764463    -0.22800
loop_ 
_geom_bond_atom_site_label_1 
_geom_bond_atom_site_label_2 
_geom_bond_distance 
_geom_bond_site_symmetry_2 
_ccdc_geom_bond_type 
C1            C2   1.406   1_655  A
C1         C1824   1.414   1_556  A
C1          C579   1.509       .  S
C2            C3   1.391   1_556  A
C2            H7   1.082       .  S
C3         C1822   1.396   1_445  A
C3          C592   1.471       .  S
C4            C5   1.408       .  A
C4         C1821   1.396       .  A
C4            H8   1.082       .  S
C5            C6   1.414       .  A
C5          C563   1.510       .  S
C6         C1819   1.414   1_554  A
C6            H9   1.069       .  S
C10          C11   1.406       .  A
C10          C15   1.418       .  A
C10         C528   1.519       .  S
C11          C12   1.405       .  A
C11          H16   1.074       .  S
C12          C13   1.395       .  A
C12         C544   1.482       .  S
C13          C14   1.399       .  A
C13          H17   1.080       .  S
C14          C15   1.407       .  A
C14         C515   1.487       .  S
C15          H18   1.081       .  S
C19          C20   1.402       .  A
C19          C24   1.407       .  A
C19         C480   1.495       .  S
C20          C21   1.399       .  A
C20          H25   1.079       .  S
C21          C22   1.399       .  A
C21         C496   1.470       .  S
C22          C23   1.401       .  A
C22          H26   1.081       .  S
C23          C24   1.403       .  A
C23         C464   1.484       .  S
C24          H27   1.083       .  S
C28          C29   1.407       .  A
C28          C33   1.408       .  A
C28         C432   1.485       .  S
C29          C30   1.408       .  A
C29          H34   1.079       .  S
C30          C31   1.403   1_556  A
C30         C560   1.503   1_556  S
C31          C32   1.402       .  A
C31          H35   1.082       .  S
C32          C33   1.406   1_554  A
C32         C448   1.490       .  S
C33          H36   1.082       .  S
C37          C38   1.405       .  A
C37          C42   1.409       .  A
C37         C416   1.484       .  S
C38          C39   1.402       .  A
C38          H43   1.084       .  S
C39          C40   1.396       .  A
C39         C512   1.475       .  S
C40          C41   1.400       .  A
C40          H44   1.085       .  S
C41          C42   1.408       .  A
C41         C400   1.481       .  S
C42          H45   1.083       .  S
C46          C47   1.401       .  A
C46          C51   1.405       .  A
C46         C384   1.482       .  S
C47          C48   1.400       .  A
C47          H52   1.084       .  S
C48          C49   1.401       .  A
C48         C467   1.475       .  S
C49          C50   1.403       .  A
C49          H53   1.084       .  S
C50          C51   1.405       .  A
C50         C368   1.480       .  S
C51          H54   1.083       .  S
C55          C56   1.407       .  A
C55         C666   1.419   1_554  A
C55         C336   1.506       .  S
C56          C57   1.397       .  A
C56          H61   1.079       .  S
C57         C664   1.391   1_554  A
C57        C1201   1.474       .  S
C58          C59   1.404       .  A
C58         C663   1.391   1_556  A
C58          H62   1.084       .  S
C59          C60   1.414   1_545  A
C59         C355   1.500       .  S
C60         C661   1.419   1_556  A
C60          H63   1.078       .  S
C64          C69   1.409       .  A
C64        C1277   1.400   1_455  A
C64         C323   1.488       .  S
C65          C66   1.403       .  A
C65        C1276   1.400       .  A
C65          H70   1.081       .  S
C66        C1279   1.399       .  A
C66         C483   1.489       .  S
C67          C68   1.402   1_655  A
C67        C1278   1.399       .  A
C67          H71   1.080       .  S
C68          C69   1.405       .  A
C68         C304   1.486       .  S
C69          H72   1.081       .  S
C73          C74   1.400       .  A
C73          C78   1.407       .  A
C73         C275   1.473       .  S
C74         C681   1.394       .  A
C74          H79   1.085       .  S
C75          C76   1.396       .  A
C75         C680   1.394   1_545  A
C75         C499   1.469       .  S
C76         C683   1.401   1_545  A
C76          H80   1.084       .  S
C77          C78   1.405       .  A
C77         C682   1.401       .  A
C77         C291   1.476       .  S
C78          H81   1.083       .  S
O82          C97   1.256       .  A
O82         Al90   1.883       .  S
C83         C387   1.477       .  S
C83          O93   1.257       .  A
C83          O84   1.267       .  A
O84         Al86   1.935       .  S
O85          C87   1.256       .  A
O85         Al86   1.883       .  S
Al86         O94   1.895       .  S
Al86         O96   1.946       .  S
Al86         O95   1.781       .  S
C87         C307   1.482       .  S
C87         O100   1.262       .  A
O88          C98   1.254       .  A
O88         Al90   1.871       .  S
O89         C102   1.259       .  A
O89         Al99   1.899       .  S
Al90        O103   1.920       .  S
Al90        O100   1.924       .  S
Al90         O95   1.779       .  S
O91          C98   1.266       .  A
O91         Al99   1.940       .  S
O92         C101   1.267       .  A
O92         Al99   1.939       .  S
O93         Al99   1.885       .  S
O94         C101   1.259       .  A
O95         Al99   1.787       .  S
O96          C97   1.268       .  A
C97         C259   1.476       .  S
C98         C272   1.471       .  S
C101        C451   1.484       .  S
C102        C339   1.491       .  S
C102        O103   1.266       .  A
C104        C105   1.408       .  A
C104       C1321   1.412       .  A
C104        C243   1.507       .  S
C105       C1318   1.399   1_556  A
C105        H110   1.077       .  S
C106        C107   1.401       .  A
C106       C1317   1.399   1_454  A
C106        C576   1.505       .  S
C107        C108   1.405       .  A
C107        H111   1.078       .  S
C108        C109   1.411   1_554  A
C108        C256   1.485       .  S
C109       C1316   1.412   1_455  A
C109        H112   1.078       .  S
C113        C118   1.404       .  A
C113        C720   1.400   1_545  A
C113        C211   1.481       .  S
C114        C115   1.405       .  A
C114        C719   1.400       .  A
C114        H119   1.083       .  S
C115        C722   1.400       .  A
C115        C531   1.491       .  S
C116        C117   1.405       .  A
C116        C721   1.400   1_545  A
C116        H120   1.081   1_545  S
C117        C118   1.406       .  A
C117        C224   1.486       .  S
C118        H121   1.080       .  S
C122        C127   1.412       .  A
C122       C1335   1.404       .  A
C122        C192   1.493       .  S
C123        C124   1.398       .  A
C123       C1334   1.404   1_455  A
C123        H128   1.083       .  S
C124       C1337   1.396   1_455  A
C124        C547   1.472       .  S
C125        C126   1.399       .  A
C125       C1336   1.396       .  A
C125        H129   1.084       .  S
C126        C127   1.406       .  A
C126        C176   1.478       .  S
C127        H130   1.083       .  S
O131        C146   1.261       .  A
O131       Al139   1.903       .  S
C132        C419   1.475       .  S
C132        O142   1.260       .  A
C132        O133   1.262       .  A
O133       Al135   1.922       .  S
O134        C136   1.260       .  A
O134       Al135   1.895       .  S
Al135       O143   1.896       .  S
Al135       O145   1.931       .  S
Al135       O144   1.784       .  S
C136        C227   1.481       .  S
C136        O149   1.263       .  A
O137        C147   1.255       .  A
O137       Al139   1.883       .  S
O138        C151   1.262       .  A
O138       Al148   1.907       .  S
Al139       O152   1.927       .  S
Al139       O149   1.920       .  S
Al139       O144   1.784       .  S
O140        C147   1.266       .  A
O140       Al148   1.940       .  S
O141        C150   1.266       .  A
O141       Al148   1.931       .  S
O142       Al148   1.903       .  S
O143        C150   1.262       .  A
O144       Al148   1.783       .  S
O145        C146   1.264       .  A
C146        C352   1.495       .  S
C147        C179   1.478       .  S
C150        C435   1.477       .  S
C151        C240   1.499       .  S
C151        O152   1.261       .  A
O153        C168   1.255       .  A
O153       Al161   1.877       .  S
C154        C894   1.486       .  S
C154        O155   1.273   1_565  A
C154        O770   1.257       .  A
O155       Al157   1.970       .  S
O156        C158   1.261       .  A
O156       Al157   1.901       .  S
Al157       O165   1.891       .  S
Al157       O167   1.957       .  S
Al157       O166   1.780       .  S
C158        C320   1.501       .  S
C158       O1383   1.268   1_455  A
O159        C169   1.259       .  A
O159       Al767   1.888       .  S
O160        C173   1.258       .  A
O160      Al1382   1.888       .  S
Al161       O171   1.947       .  S
Al161       O765   1.888   1_545  S
Al161       O780   1.938   1_545  S
Al161      O1378   1.780       .  S
O162        C169   1.266       .  A
O162      Al1382   1.932       .  S
O163        C778   1.266       .  A
O163       Al170   1.934       .  S
O164        C760   1.257       .  A
O164       Al170   1.884       .  S
O165        C172   1.258       .  A
O166      Al1373   1.780   1_455  S
O166       Al776   1.785   1_545  S
O167       C1380   1.272   1_455  A
C168        C195   1.486       .  S
C168       O1379   1.272       .  A
C169        C371   1.474       .  S
Al170      O1372   1.888   1_455  S
Al170      O1374   1.932   1_455  S
Al170       O772   1.785       .  S
O171       C1370   1.268       .  A
C172        C208   1.478       .  S
C172        O769   1.266   1_545  A
C173        C403   1.477       .  S
C173        O174   1.267       .  A
O174       Al767   1.938       .  S
C175        C176   1.395       .  A
C175        C180   1.401       .  A
C175        H182   1.083       .  S
C176        C177   1.417       .  A
C177        C178   1.411       .  A
C177        C184   1.515       .  S
C178        C179   1.401       .  A
C178        H183   1.080       .  S
C179        C180   1.414       .  A
C180        C181   1.506       .  S
C181        F185   1.385       .  S
C181        F186   1.382       .  S
C181        F187   1.381       .  S
C184        F188   1.383       .  S
C184        F189   1.378       .  S
C184        F190   1.385       .  S
C191        C192   1.401       .  A
C191        C196   1.406       .  A
C191        H198   1.082       .  S
C192       C1405   1.423       .  A
C193        C194   1.407       .  A
C193       C1404   1.423   1_455  A
C193        C200   1.519       .  S
C194       C1407   1.401   1_455  A
C194        H199   1.083       .  S
C195        C196   1.426       .  A
C195       C1406   1.401       .  A
C196        C197   1.522       .  S
C197        F201   1.385       .  S
C197        F202   1.378       .  S
C197        F203   1.375       .  S
C200        F204   1.383       .  S
C200        F205   1.383       .  S
C200        F206   1.385       .  S
C207        C208   1.402       .  A
C207        C212   1.406       .  A
C207        H820   1.082   1_545  S
C208        C209   1.416       .  A
C209        C210   1.408       .  A
C209        C216   1.516       .  S
C210        C211   1.404       .  A
C210        H215   1.084       .  S
C211        C212   1.416       .  A
C212        C819   1.519       .  S
C213        C818   1.519       .  S
C213        F217   1.384       .  S
C213        F218   1.381       .  S
C213        F825   1.383       .  S
H214        C813   1.082       .  S
C216        F221   1.382       .  S
C216        F222   1.385       .  S
C216        F826   1.382   1_545  S
F219        C819   1.383       .  S
F220        C822   1.382       .  S
C223        C224   1.406       .  A
C223        C228   1.405       .  A
C223        H230   1.083       .  S
C224        C225   1.418       .  A
C225        C226   1.408       .  A
C225        C232   1.520       .  S
C226        C227   1.405       .  A
C226        H231   1.083       .  S
C227        C228   1.417       .  A
C228        C229   1.519       .  S
C229        F233   1.385       .  S
C229        F234   1.382       .  S
C229        F235   1.383       .  S
C232        F236   1.383       .  S
C232        F237   1.381       .  S
C232        F238   1.385       .  S
C239        C240   1.411       .  A
C239        C244   1.417       .  A
C239        H246   1.080       .  S
C240        C241   1.418       .  A
C241        C242   1.397       .  A
C241        C248   1.524       .  S
C242        C243   1.409       .  A
C242        H247   1.084       .  S
C243        C244   1.426       .  A
C244        C245   1.518       .  S
C245        F249   1.385   1_556  S
C245        F250   1.380       .  S
C245        F251   1.384   1_556  S
C248        F252   1.380       .  S
C248        F253   1.375       .  S
C248        F254   1.384       .  S
C255        C256   1.401       .  A
C255        C260   1.406       .  A
C255        H262   1.083       .  S
C256        C257   1.419       .  A
C257        C258   1.410       .  A
C257        C264   1.515   1_554  S
C258        C259   1.400       .  A
C258        H263   1.083       .  S
C259        C260   1.416       .  A
C260        C261   1.516       .  S
C261        F265   1.384       .  S
C261        F266   1.383       .  S
C261        F267   1.381       .  S
C264        F268   1.382       .  S
C264        F269   1.377       .  S
C264        F270   1.385       .  S
C271        C272   1.400       .  A
C271        C276   1.405       .  A
C271        H278   1.085       .  S
C272        C273   1.417       .  A
C273        C274   1.403       .  A
C273        C280   1.519       .  S
C274        C275   1.400       .  A
C274        H279   1.083       .  S
C275        C276   1.419       .  A
C276        C277   1.518       .  S
C277        F281   1.384       .  S
C277        F282   1.382       .  S
C277        F283   1.383       .  S
C280        F284   1.382       .  S
C280        F285   1.383       .  S
C280        F286   1.384       .  S
C287        C288   1.405       .  A
C287        C292   1.411       .  A
C287        H294   1.082       .  S
C288        C895   1.414       .  A
C288        C760   1.486       .  S
C289        C290   1.402   1_545  A
C289        C894   1.414   1_545  A
C289        C296   1.499       .  S
C290        C897   1.396       .  A
C290        H295   1.084   1_565  S
C291        C292   1.414       .  A
C291        C896   1.396       .  A
C292        C293   1.516       .  S
C293        F297   1.384       .  S
C293        F298   1.383       .  S
C293        F299   1.383       .  S
C296        F300   1.372       .  S
C296        F301   1.383   1_545  S
C296        F302   1.385       .  S
C303        C304   1.406       .  A
C303        C308   1.405       .  A
C303        H310   1.082       .  S
C304        C305   1.417       .  A
C305        C306   1.407       .  A
C305        C312   1.520       .  S
C306        C307   1.407       .  A
C306        H311   1.083       .  S
C307        C308   1.416       .  A
C308        C309   1.519       .  S
C309        F313   1.385       .  S
C309        F314   1.382       .  S
C309        F315   1.383       .  S
C312        F316   1.383       .  S
C312        F317   1.381       .  S
C312        F318   1.385       .  S
C319        C324   1.407       .  A
C319       C1532   1.405       .  A
C319        H326   1.077       .  S
C320        C321   1.420       .  A
C320       C1531   1.405   1_455  A
C321        C322   1.403       .  A
C321        C328   1.500       .  S
C322        C323   1.399       .  A
C322        H327   1.083       .  S
C323       C1536   1.420   1_455  A
C324       C1535   1.420       .  A
C324        C325   1.519       .  S
C325        F329   1.384       .  S
C325        F330   1.383       .  S
C325        F331   1.382       .  S
C328        F332   1.381       .  S
C328        F333   1.383       .  S
C328        F334   1.385       .  S
C335        C336   1.409       .  A
C335        C340   1.412       .  A
C335        H342   1.082       .  S
C336        C337   1.428       .  A
C337        C338   1.403       .  A
C337        C344   1.518       .  S
C338        C339   1.401       .  A
C338        H343   1.085       .  S
C339        C340   1.422       .  A
C340        C341   1.519       .  S
C341        F345   1.385       .  S
C341        F346   1.383       .  S
C341        F347   1.383       .  S
C344        F348   1.376   1_554  S
C344        F349   1.384       .  S
C344        F350   1.385       .  S
C351        C352   1.408       .  A
C351        C356   1.415       .  A
C351        H358   1.083       .  S
C352        C353   1.422       .  A
C353        C354   1.404       .  A
C353        C360   1.519       .  S
C354        C355   1.405       .  A
C354        H359   1.082       .  S
C355        C356   1.422       .  A
C356        C357   1.520       .  S
C357        F361   1.384   1_556  S
C357        F362   1.381       .  S
C357        F363   1.383   1_556  S
C360        F364   1.378       .  S
C360        F365   1.383       .  S
C360        F366   1.385       .  S
C367        C368   1.401       .  A
C367        C372   1.406       .  A
C367        H374   1.083       .  S
C368        C369   1.420       .  A
C369        C370   1.405       .  A
C369        C376   1.517       .  S
C370        C371   1.399       .  A
C370        H375   1.085       .  S
C371        C372   1.418       .  A
C372        C373   1.518       .  S
C373        F377   1.384       .  S
C373        F378   1.382       .  S
C373        F379   1.381       .  S
C376        F380   1.384       .  S
C376        F381   1.381       .  S
C376        F382   1.383       .  S
C383        C384   1.407       .  A
C383        C388   1.410       .  A
C383        H390   1.083       .  S
C384        C385   1.417       .  A
C385        C386   1.404       .  A
C385        C392   1.521       .  S
C386        C387   1.401       .  A
C386        H391   1.079       .  S
C387        C388   1.413       .  A
C388        C389   1.516       .  S
C389        F393   1.384       .  S
C389        F394   1.382       .  S
C389        F395   1.384       .  S
C392        F396   1.384       .  S
C392        F397   1.381       .  S
C392        F398   1.385       .  S
C399        C400   1.404       .  A
C399        C404   1.407       .  A
C399        H406   1.084       .  S
C400        C401   1.415       .  A
C401        C402   1.408       .  A
C401        C408   1.518       .  S
C402        C403   1.403       .  A
C402        H407   1.084       .  S
C403        C404   1.413       .  A
C404        C405   1.513       .  S
C405        F409   1.385       .  S
C405        F410   1.378       .  S
C405        F411   1.382       .  S
C408        F412   1.383       .  S
C408        F413   1.382       .  S
C408        F414   1.384       .  S
C415        C416   1.404       .  A
C415        C420   1.410       .  A
C415        H422   1.083       .  S
C416        C417   1.417       .  A
C417        C418   1.407       .  A
C417        C424   1.517       .  S
C418        C419   1.401       .  A
C418        H423   1.084       .  S
C419        C420   1.413       .  A
C420        C421   1.515       .  S
C421        F425   1.384       .  S
C421        F426   1.383       .  S
C421        F427   1.381       .  S
C424        F428   1.381       .  S
C424        F429   1.383       .  S
C424        F430   1.385       .  S
C431        C432   1.406       .  A
C431        C436   1.410       .  A
C431        H438   1.084       .  S
C432        C433   1.415       .  A
C433        C434   1.408       .  A
C433        C440   1.516       .  S
C434        C435   1.403       .  A
C434        H439   1.084       .  S
C435        C436   1.413       .  A
C436        C437   1.514       .  S
C437        F441   1.384       .  S
C437        F442   1.382       .  S
C437        F443   1.384       .  S
C440        F444   1.383       .  S
C440        F445   1.381       .  S
C440        F446   1.385       .  S
C447        C448   1.402       .  A
C447        C452   1.402       .  A
C447        H454   1.083       .  S
C448        C449   1.420       .  A
C449        C450   1.413       .  A
C449        C456   1.517   1_554  S
C450        C451   1.404       .  A
C450        H455   1.083       .  S
C451        C452   1.416       .  A
C452        C453   1.512       .  S
C453        F457   1.385       .  S
C453        F458   1.380       .  S
C453        F459   1.380       .  S
C456        F460   1.381       .  S
C456        F461   1.384       .  S
C456        F462   1.384       .  S
C463        C464   1.406       .  A
C463        C468   1.400       .  A
C463        H470   1.083       .  S
C464        C465   1.420       .  A
C465        C466   1.407       .  A
C465        C472   1.519       .  S
C466        C467   1.403       .  A
C466        H471   1.084       .  S
C467        C468   1.413       .  A
C468        C469   1.518       .  S
C469        F473   1.385       .  S
C469        F474   1.380       .  S
C469        F475   1.383       .  S
C472        F476   1.383       .  S
C472        F477   1.383       .  S
C472        F478   1.384       .  S
C479        C480   1.407       .  A
C479        C484   1.400       .  A
C479        H486   1.082       .  S
C480        C481   1.424       .  A
C481        C482   1.403       .  A
C481        C488   1.521       .  S
C482        C483   1.406       .  A
C482        H487   1.083       .  S
C483        C484   1.422       .  A
C484        C485   1.524       .  S
C485        F489   1.385       .  S
C485        F490   1.381       .  S
C485        F491   1.383       .  S
C488        F492   1.383       .  S
C488        F493   1.381       .  S
C488        F494   1.385       .  S
C495        C496   1.402       .  A
C495        C500   1.398       .  A
C495        H502   1.083       .  S
C496        C497   1.411       .  A
C497        C498   1.407       .  A
C497        C504   1.516       .  S
C498        C499   1.405       .  A
C498        H503   1.083       .  S
C499        C500   1.411       .  A
C500        C501   1.519       .  S
C501        F505   1.385       .  S
C501        F506   1.383       .  S
C501        F507   1.382       .  S
C504        F508   1.383       .  S
C504        F509   1.382       .  S
C504        F510   1.384       .  S
C511        C512   1.401       .  A
C511        C516   1.406       .  A
C511        H518   1.085       .  S
C512        C513   1.413       .  A
C513        C514   1.403       .  A
C513        C520   1.519       .  S
C514        C515   1.407       .  A
C514        H519   1.083       .  S
C515        C516   1.421       .  A
C516        C517   1.518       .  S
C517        F521   1.384       .  S
C517        F522   1.382       .  S
C517        F523   1.383       .  S
C520        F524   1.382       .  S
C520        F525   1.381       .  S
C520        F526   1.385       .  S
C527        C528   1.413       .  A
C527        C532   1.404       .  A
C527        H534   1.080       .  S
C528        C529   1.437       .  A
C529        C530   1.406       .  A
C529        C536   1.521       .  S
C530        C531   1.399       .  A
C530        H535   1.083       .  S
C531        C532   1.418       .  A
C532        C533   1.523       .  S
C533        F537   1.385       .  S
C533        F539   1.384       .  S
C533       F1144   1.381       .  S
C536        F540   1.383       .  S
C536        F541   1.378       .  S
C536        F542   1.386       .  S
F538       C1139   1.381       .  S
C543        C544   1.404       .  A
C543        C548   1.396       .  A
C543        H550   1.077       .  S
C544        C545   1.418       .  A
C545        C546   1.407       .  A
C545        C552   1.517       .  S
C546        C547   1.405       .  A
C546        H551   1.084       .  S
C547        C548   1.410       .  A
C548        C549   1.518       .  S
C549        F553   1.385       .  S
C549        F554   1.379       .  S
C549        F555   1.383       .  S
C552        F556   1.383       .  S
C552        F557   1.383       .  S
C552        F558   1.385       .  S
C559        C560   1.411       .  A
C559        C564   1.404       .  A
C559        H566   1.082       .  S
C560        C561   1.422   1_554  A
C561        C562   1.406   1_556  A
C561        C568   1.522       .  S
C562        C563   1.414       .  A
C562        H567   1.081   1_554  S
C563        C564   1.422       .  A
C564        C565   1.519       .  S
C565        F569   1.385       .  S
C565        F570   1.382       .  S
C565        F571   1.383       .  S
C568        F572   1.382       .  S
C568        F573   1.383   1_556  S
C568        F574   1.386   1_556  S
C575        C580   1.404       .  A
C575       C1788   1.413   1_556  A
C575        H582   1.082       .  S
C576        C577   1.423       .  A
C576       C1787   1.413   1_454  A
C577        C578   1.401       .  A
C577        C584   1.521   1_554  S
C578        C579   1.412   1_454  A
C578        H583   1.077       .  S
C579       C1792   1.419       .  A
C580       C1791   1.419       .  A
C580        C581   1.518       .  S
C581        F585   1.385       .  S
C581        F586   1.381       .  S
C581        F587   1.383       .  S
C584        F588   1.380   1_556  S
C584        F589   1.380       .  S
C584        F590   1.386       .  S
C591        C596   1.401       .  A
C591       C1198   1.397   1_556  A
C591        H598   1.084       .  S
C592        C593   1.416       .  A
C592       C1197   1.397   1_544  A
C593        C594   1.406       .  A
C593        C600   1.517       .  S
C594        C595   1.401       .  A
C594        H599   1.083       .  S
C595       C1202   1.419   1_544  A
C595        C663   1.474       .  S
C596       C1201   1.419   1_556  A
C596        C597   1.519       .  S
C597        F601   1.385       .  S
C597        F602   1.377       .  S
C597        F603   1.381       .  S
C600        F604   1.383       .  S
C600        F605   1.382       .  S
C600        F606   1.384       .  S
C607        C608   1.406   1_655  A
C607       C1218   1.414   1_556  A
C607       C1185   1.509       .  S
C608        C609   1.391   1_556  A
C608        H613   1.082       .  S
C609       C1216   1.396   1_455  A
C609       C1198   1.471       .  S
C610       C1215   1.396   1_565  A
C610        C611   1.408       .  A
C610        H614   1.082       .  S
C611        C612   1.414   1_565  A
C611       C1169   1.510       .  S
C612       C1213   1.414   1_554  A
C612        H615   1.069       .  S
C616        C617   1.406       .  A
C616        C621   1.418       .  A
C616       C1134   1.519       .  S
C617        C618   1.405       .  A
C617        H622   1.074       .  S
C618        C619   1.395       .  A
C618       C1150   1.482       .  S
C619        C620   1.399       .  A
C619        H623   1.080       .  S
C620        C621   1.407       .  A
C620       C1121   1.487       .  S
C621        H624   1.081       .  S
C625        C626   1.402       .  A
C625        C630   1.407       .  A
C625       C1086   1.495       .  S
C626        C627   1.399       .  A
C626        H631   1.079       .  S
C627        C628   1.399       .  A
C627       C1102   1.470       .  S
C628        C629   1.401       .  A
C628        H632   1.081       .  S
C629        C630   1.403       .  A
C629       C1070   1.484       .  S
C630        H633   1.083       .  S
C634        C635   1.407       .  A
C634        C639   1.408       .  A
C634       C1038   1.485       .  S
C635        C636   1.408       .  A
C635        H640   1.079       .  S
C636        C637   1.403   1_556  A
C636       C1166   1.503   1_556  S
C637        C638   1.402       .  A
C637        H641   1.082       .  S
C638        C639   1.406   1_554  A
C638       C1054   1.490       .  S
C639        H642   1.082       .  S
C643        C644   1.405       .  A
C643        C648   1.409       .  A
C643       C1022   1.484       .  S
C644        C645   1.402       .  A
C644        H649   1.084       .  S
C645        C646   1.396       .  A
C645       C1118   1.475       .  S
C646        C647   1.400       .  A
C646        H650   1.085       .  S
C647        C648   1.408       .  A
C647       C1006   1.481       .  S
C648        H651   1.083       .  S
C652        C653   1.401       .  A
C652        C657   1.405       .  A
C652        C990   1.482       .  S
C653        C654   1.400       .  A
C653        H658   1.084       .  S
C654        C655   1.401       .  A
C654       C1073   1.475       .  S
C655        C656   1.403       .  A
C655        H659   1.084       .  S
C656        C657   1.405       .  A
C656        C974   1.480       .  S
C657        H660   1.083       .  S
C661        C662   1.407       .  A
C661        C942   1.506       .  S
C662        C663   1.397   1_565  A
C662        H667   1.079       .  S
C664        C665   1.404       .  A
C664        H668   1.084       .  S
C665        C666   1.414       .  A
C665        C961   1.500       .  S
C666        H669   1.078       .  S
C670       C1883   1.400   1_455  A
C670        C675   1.409       .  A
C670        C929   1.488       .  S
C671       C1882   1.400       .  A
C671        C672   1.403       .  A
C671        H676   1.081       .  S
C672       C1885   1.399       .  A
C672       C1089   1.489       .  S
C673       C1884   1.399       .  A
C673        C674   1.402   1_655  A
C673        H677   1.080       .  S
C674        C675   1.405       .  A
C674        C910   1.486       .  S
C675        H678   1.081       .  S
C679        C680   1.400       .  A
C679        C684   1.407       .  A
C679        C881   1.473       .  S
C680        H685   1.085       .  S
C681        C682   1.396       .  A
C681       C1105   1.469       .  S
C682        H686   1.084       .  S
C683        C684   1.405       .  A
C683        C897   1.476       .  S
C684        H687   1.083       .  S
O688        C703   1.256       .  A
O688       Al696   1.883       .  S
C689        C993   1.477       .  S
C689        O699   1.257       .  A
C689        O690   1.267       .  A
O690       Al692   1.935       .  S
O691        C693   1.256       .  A
O691       Al692   1.883       .  S
Al692       O700   1.895       .  S
Al692       O702   1.946       .  S
Al692       O701   1.781       .  S
C693        C913   1.482       .  S
C693        O706   1.262       .  A
O694        C704   1.254       .  A
O694       Al696   1.871       .  S
O695        C708   1.259       .  A
O695       Al705   1.899       .  S
Al696       O709   1.920       .  S
Al696       O706   1.924       .  S
Al696       O701   1.779       .  S
O697        C704   1.266       .  A
O697       Al705   1.940       .  S
O698        C707   1.267       .  A
O698       Al705   1.939       .  S
O699       Al705   1.885       .  S
O700        C707   1.259       .  A
O701       Al705   1.787       .  S
O702        C703   1.268       .  A
C703        C865   1.476       .  S
C704        C878   1.471       .  S
C707       C1057   1.484       .  S
C708        C945   1.491       .  S
C708        O709   1.266       .  A
C710        C711   1.408       .  A
C710       C1927   1.412       .  A
C710        C849   1.507       .  S
C711       C1924   1.399   1_556  A
C711        H716   1.077       .  S
C712       C1923   1.399   1_454  A
C712        C713   1.401       .  A
C712       C1182   1.505       .  S
C713        C714   1.405       .  A
C713        H717   1.078       .  S
C714        C715   1.411   1_554  A
C714        C862   1.485       .  S
C715       C1922   1.412   1_455  A
C715        H718   1.078       .  S
C719        C724   1.404       .  A
C719        C817   1.481       .  S
C720        C721   1.405       .  A
C720        H725   1.083       .  S
C721       C1137   1.491       .  S
C722        C723   1.405       .  A
C722        H726   1.081       .  S
C723        C724   1.406       .  A
C723        C830   1.486       .  S
C724        H727   1.080       .  S
C728       C1941   1.404       .  A
C728        C733   1.412       .  A
C728        C798   1.493       .  S
C729       C1940   1.404   1_455  A
C729        C730   1.398       .  A
C729        H734   1.083       .  S
C730       C1943   1.396   1_455  A
C730       C1153   1.472       .  S
C731       C1942   1.396       .  A
C731        C732   1.399       .  A
C731        H735   1.084       .  S
C732        C733   1.406       .  A
C732        C782   1.478       .  S
C733        H736   1.083       .  S
O737        C752   1.261       .  A
O737       Al745   1.903       .  S
C738       C1025   1.475       .  S
C738        O748   1.260       .  A
C738        O739   1.262       .  A
O739       Al741   1.922       .  S
O740        C742   1.260       .  A
O740       Al741   1.895       .  S
Al741       O749   1.896       .  S
Al741       O751   1.931       .  S
Al741       O750   1.784       .  S
C742        C833   1.481       .  S
C742        O755   1.263       .  A
O743        C753   1.255       .  A
O743       Al745   1.883       .  S
O744        C757   1.262       .  A
O744       Al754   1.907       .  S
Al745       O758   1.927       .  S
Al745       O755   1.920       .  S
Al745       O750   1.784       .  S
O746        C753   1.266       .  A
O746       Al754   1.940       .  S
O747        C756   1.266       .  A
O747       Al754   1.931       .  S
O748       Al754   1.903       .  S
O749        C756   1.262       .  A
O750       Al754   1.783       .  S
O751        C752   1.264       .  A
C752        C958   1.495       .  S
C753        C785   1.478       .  S
C756       C1041   1.477       .  S
C757        C846   1.499       .  S
C757        O758   1.261       .  A
O759        C774   1.255       .  A
O759       Al767   1.877       .  S
C760        O761   1.273       .  A
O761       Al763   1.970       .  S
O762        C764   1.261       .  A
O762       Al763   1.901       .  S
Al763       O771   1.891       .  S
Al763       O773   1.957       .  S
Al763       O772   1.780       .  S
C764        C926   1.501       .  S
C764       O1989   1.268   1_455  A
O765        C775   1.259       .  A
O766        C779   1.258       .  A
O766      Al1988   1.888       .  S
Al767       O777   1.947       .  S
Al767      O1984   1.780       .  S
O768        C775   1.266       .  A
O768      Al1988   1.932       .  S
O769       Al776   1.934       .  S
O770       Al776   1.884       .  S
O771        C778   1.258       .  A
O772      Al1979   1.780   1_455  S
O773       C1986   1.272   1_455  A
C774        C801   1.486       .  S
C774       O1985   1.272       .  A
C775        C977   1.474       .  S
Al776      O1978   1.888   1_455  S
Al776      O1980   1.932   1_455  S
O777       C1976   1.268       .  A
C778        C814   1.478       .  S
C779       C1009   1.477       .  S
C779        O780   1.267       .  A
C781        C782   1.395       .  A
C781        C786   1.401       .  A
C781        H788   1.083       .  S
C782        C783   1.417       .  A
C783        C784   1.411       .  A
C783        C790   1.515       .  S
C784        C785   1.401       .  A
C784        H789   1.080       .  S
C785        C786   1.414       .  A
C786        C787   1.506       .  S
C787        F791   1.385       .  S
C787        F792   1.382       .  S
C787        F793   1.381       .  S
C790        F794   1.383       .  S
C790        F795   1.378       .  S
C790        F796   1.385       .  S
C797        C798   1.401       .  A
C797        C802   1.406       .  A
C797        H804   1.082       .  S
C798       C2011   1.423       .  A
C799       C2010   1.423   1_455  A
C799        C800   1.407       .  A
C799        C806   1.519       .  S
C800       C2013   1.401   1_455  A
C800        H805   1.083       .  S
C801       C2012   1.401       .  A
C801        C802   1.426       .  A
C802        C803   1.522       .  S
C803        F807   1.385       .  S
C803        F808   1.378       .  S
C803        F809   1.375       .  S
C806        F810   1.383       .  S
C806        F811   1.383       .  S
C806        F812   1.385       .  S
C813        C814   1.402       .  A
C813        C818   1.406       .  A
C814        C815   1.416       .  A
C815        C816   1.408       .  A
C815        C822   1.516       .  S
C816        C817   1.404       .  A
C816        H821   1.084       .  S
C817        C818   1.416       .  A
C819        F823   1.384       .  S
C819        F824   1.381   1_545  S
C822        F827   1.382       .  S
C822        F828   1.385       .  S
C829        C830   1.406       .  A
C829        C834   1.405       .  A
C829        H836   1.083       .  S
C830        C831   1.418       .  A
C831        C832   1.408       .  A
C831        C838   1.520       .  S
C832        C833   1.405       .  A
C832        H837   1.083       .  S
C833        C834   1.417       .  A
C834        C835   1.519       .  S
C835        F839   1.385       .  S
C835        F840   1.382       .  S
C835        F841   1.383       .  S
C838        F842   1.383       .  S
C838        F843   1.381       .  S
C838        F844   1.385       .  S
C845        C846   1.411       .  A
C845        C850   1.417       .  A
C845        H852   1.080       .  S
C846        C847   1.418       .  A
C847        C848   1.397       .  A
C847        C854   1.524       .  S
C848        C849   1.409       .  A
C848        H853   1.084       .  S
C849        C850   1.426       .  A
C850        C851   1.518       .  S
C851        F855   1.385   1_556  S
C851        F856   1.380       .  S
C851        F857   1.384   1_556  S
C854        F858   1.380       .  S
C854        F859   1.375       .  S
C854        F860   1.384       .  S
C861        C862   1.401       .  A
C861        C866   1.406       .  A
C861        H868   1.083       .  S
C862        C863   1.419       .  A
C863        C864   1.410       .  A
C863        C870   1.515   1_554  S
C864        C865   1.400       .  A
C864        H869   1.083       .  S
C865        C866   1.416       .  A
C866        C867   1.516       .  S
C867        F871   1.384       .  S
C867        F872   1.383       .  S
C867        F873   1.381       .  S
C870        F874   1.382       .  S
C870        F875   1.377       .  S
C870        F876   1.385       .  S
C877        C878   1.400       .  A
C877        C882   1.405       .  A
C877        H884   1.085       .  S
C878        C879   1.417       .  A
C879        C880   1.403       .  A
C879        C886   1.519       .  S
C880        C881   1.400       .  A
C880        H885   1.083       .  S
C881        C882   1.419       .  A
C882        C883   1.518       .  S
C883        F887   1.384       .  S
C883        F888   1.382       .  S
C883        F889   1.383       .  S
C886        F890   1.382       .  S
C886        F891   1.383       .  S
C886        F892   1.384       .  S
C893        C894   1.405       .  A
C893        C898   1.411       .  A
C893        H900   1.082       .  S
C895        C896   1.402       .  A
C895        C902   1.499       .  S
C896        H901   1.084       .  S
C897        C898   1.414       .  A
C898        C899   1.516       .  S
C899        F903   1.384       .  S
C899        F904   1.383       .  S
C899        F905   1.383       .  S
C902        F906   1.372       .  S
C902        F907   1.383       .  S
C902        F908   1.385       .  S
C909        C910   1.406       .  A
C909        C914   1.405       .  A
C909        H916   1.082       .  S
C910        C911   1.417       .  A
C911        C912   1.407       .  A
C911        C918   1.520       .  S
C912        C913   1.407       .  A
C912        H917   1.083       .  S
C913        C914   1.416       .  A
C914        C915   1.519       .  S
C915        F919   1.385       .  S
C915        F920   1.382       .  S
C915        F921   1.383       .  S
C918        F922   1.383       .  S
C918        F923   1.381       .  S
C918        F924   1.385       .  S
C925       C2138   1.405       .  A
C925        C930   1.407       .  A
C925        H932   1.077       .  S
C926       C2137   1.405   1_455  A
C926        C927   1.420       .  A
C927        C928   1.403       .  A
C927        C934   1.500       .  S
C928        C929   1.399       .  A
C928        H933   1.083       .  S
C929       C2142   1.420   1_455  A
C930       C2141   1.420       .  A
C930        C931   1.519       .  S
C931        F935   1.384       .  S
C931        F936   1.383       .  S
C931        F937   1.382       .  S
C934        F938   1.381       .  S
C934        F939   1.383       .  S
C934        F940   1.385       .  S
C941        C942   1.409       .  A
C941        C946   1.412       .  A
C941        H948   1.082       .  S
C942        C943   1.428       .  A
C943        C944   1.403       .  A
C943        C950   1.518       .  S
C944        C945   1.401       .  A
C944        H949   1.085       .  S
C945        C946   1.422       .  A
C946        C947   1.519       .  S
C947        F951   1.385       .  S
C947        F952   1.383       .  S
C947        F953   1.383       .  S
C950        F954   1.376   1_554  S
C950        F955   1.384       .  S
C950        F956   1.385       .  S
C957        C958   1.408       .  A
C957        C962   1.415       .  A
C957        H964   1.083       .  S
C958        C959   1.422       .  A
C959        C960   1.404       .  A
C959        C966   1.519       .  S
C960        C961   1.405       .  A
C960        H965   1.082       .  S
C961        C962   1.422       .  A
C962        C963   1.520       .  S
C963        F967   1.384   1_556  S
C963        F968   1.381       .  S
C963        F969   1.383   1_556  S
C966        F970   1.378       .  S
C966        F971   1.383       .  S
C966        F972   1.385       .  S
C973        C974   1.401       .  A
C973        C978   1.406       .  A
C973        H980   1.083       .  S
C974        C975   1.420       .  A
C975        C976   1.405       .  A
C975        C982   1.517       .  S
C976        C977   1.399       .  A
C976        H981   1.085       .  S
C977        C978   1.418       .  A
C978        C979   1.518       .  S
C979        F983   1.384       .  S
C979        F984   1.382       .  S
C979        F985   1.381       .  S
C982        F986   1.384       .  S
C982        F987   1.381       .  S
C982        F988   1.383       .  S
C989        C990   1.407       .  A
C989        C994   1.410       .  A
C989        H996   1.083       .  S
C990        C991   1.417       .  A
C991        C992   1.404       .  A
C991        C998   1.521       .  S
C992        C993   1.401       .  A
C992        H997   1.079       .  S
C993        C994   1.413       .  A
C994        C995   1.516       .  S
C995        F999   1.384       .  S
C995       F1000   1.382       .  S
C995       F1001   1.384       .  S
C998       F1002   1.384       .  S
C998       F1003   1.381       .  S
C998       F1004   1.385       .  S
C1005      C1006   1.404       .  A
C1005      C1010   1.407       .  A
C1005      H1012   1.084       .  S
C1006      C1007   1.415       .  A
C1007      C1008   1.408       .  A
C1007      C1014   1.518       .  S
C1008      C1009   1.403       .  A
C1008      H1013   1.084       .  S
C1009      C1010   1.413       .  A
C1010      C1011   1.513       .  S
C1011      F1015   1.385       .  S
C1011      F1016   1.378       .  S
C1011      F1017   1.382       .  S
C1014      F1018   1.383       .  S
C1014      F1019   1.382       .  S
C1014      F1020   1.384       .  S
C1021      C1022   1.404       .  A
C1021      C1026   1.410       .  A
C1021      H1028   1.083       .  S
C1022      C1023   1.417       .  A
C1023      C1024   1.407       .  A
C1023      C1030   1.517       .  S
C1024      C1025   1.401       .  A
C1024      H1029   1.084       .  S
C1025      C1026   1.413       .  A
C1026      C1027   1.515       .  S
C1027      F1031   1.384       .  S
C1027      F1032   1.383       .  S
C1027      F1033   1.381       .  S
C1030      F1034   1.381       .  S
C1030      F1035   1.383       .  S
C1030      F1036   1.385       .  S
C1037      C1038   1.406       .  A
C1037      C1042   1.410       .  A
C1037      H1044   1.084       .  S
C1038      C1039   1.415       .  A
C1039      C1040   1.408       .  A
C1039      C1046   1.516       .  S
C1040      C1041   1.403       .  A
C1040      H1045   1.084       .  S
C1041      C1042   1.413       .  A
C1042      C1043   1.514       .  S
C1043      F1047   1.384       .  S
C1043      F1048   1.382       .  S
C1043      F1049   1.384       .  S
C1046      F1050   1.383       .  S
C1046      F1051   1.381       .  S
C1046      F1052   1.385       .  S
C1053      C1054   1.402       .  A
C1053      C1058   1.402       .  A
C1053      H1060   1.083       .  S
C1054      C1055   1.420       .  A
C1055      C1056   1.413       .  A
C1055      C1062   1.517   1_554  S
C1056      C1057   1.404       .  A
C1056      H1061   1.083       .  S
C1057      C1058   1.416       .  A
C1058      C1059   1.512       .  S
C1059      F1063   1.385       .  S
C1059      F1064   1.380       .  S
C1059      F1065   1.380       .  S
C1062      F1066   1.381       .  S
C1062      F1067   1.384       .  S
C1062      F1068   1.384       .  S
C1069      C1070   1.406       .  A
C1069      C1074   1.400       .  A
C1069      H1076   1.083       .  S
C1070      C1071   1.420       .  A
C1071      C1072   1.407       .  A
C1071      C1078   1.519       .  S
C1072      C1073   1.403       .  A
C1072      H1077   1.084       .  S
C1073      C1074   1.413       .  A
C1074      C1075   1.518       .  S
C1075      F1079   1.385       .  S
C1075      F1080   1.380       .  S
C1075      F1081   1.383       .  S
C1078      F1082   1.383       .  S
C1078      F1083   1.383       .  S
C1078      F1084   1.384       .  S
C1085      C1086   1.407       .  A
C1085      C1090   1.400       .  A
C1085      H1092   1.082       .  S
C1086      C1087   1.424       .  A
C1087      C1088   1.403       .  A
C1087      C1094   1.521       .  S
C1088      C1089   1.406       .  A
C1088      H1093   1.083       .  S
C1089      C1090   1.422       .  A
C1090      C1091   1.524       .  S
C1091      F1095   1.385       .  S
C1091      F1096   1.381       .  S
C1091      F1097   1.383       .  S
C1094      F1098   1.383       .  S
C1094      F1099   1.381       .  S
C1094      F1100   1.385       .  S
C1101      C1102   1.402       .  A
C1101      C1106   1.398       .  A
C1101      H1108   1.083       .  S
C1102      C1103   1.411       .  A
C1103      C1104   1.407       .  A
C1103      C1110   1.516       .  S
C1104      C1105   1.405       .  A
C1104      H1109   1.083       .  S
C1105      C1106   1.411       .  A
C1106      C1107   1.519       .  S
C1107      F1111   1.385       .  S
C1107      F1112   1.383       .  S
C1107      F1113   1.382       .  S
C1110      F1114   1.383       .  S
C1110      F1115   1.382       .  S
C1110      F1116   1.384       .  S
C1117      C1118   1.401       .  A
C1117      C1122   1.406       .  A
C1117      H1124   1.085       .  S
C1118      C1119   1.413       .  A
C1119      C1120   1.403       .  A
C1119      C1126   1.519       .  S
C1120      C1121   1.407       .  A
C1120      H1125   1.083       .  S
C1121      C1122   1.421       .  A
C1122      C1123   1.518       .  S
C1123      F1127   1.384       .  S
C1123      F1128   1.382       .  S
C1123      F1129   1.383       .  S
C1126      F1130   1.382       .  S
C1126      F1131   1.381       .  S
C1126      F1132   1.385       .  S
C1133      C1134   1.413       .  A
C1133      C1138   1.404       .  A
C1133      H1140   1.080       .  S
C1134      C1135   1.437       .  A
C1135      C1136   1.406       .  A
C1135      C1142   1.521       .  S
C1136      C1137   1.399       .  A
C1136      H1141   1.083       .  S
C1137      C1138   1.418       .  A
C1138      C1139   1.523       .  S
C1139      F1143   1.385       .  S
C1139      F1145   1.384       .  S
C1142      F1146   1.383       .  S
C1142      F1147   1.378       .  S
C1142      F1148   1.386       .  S
C1149      C1150   1.404       .  A
C1149      C1154   1.396       .  A
C1149      H1156   1.077       .  S
C1150      C1151   1.418       .  A
C1151      C1152   1.407       .  A
C1151      C1158   1.517       .  S
C1152      C1153   1.405       .  A
C1152      H1157   1.084       .  S
C1153      C1154   1.410       .  A
C1154      C1155   1.518       .  S
C1155      F1159   1.385       .  S
C1155      F1160   1.379       .  S
C1155      F1161   1.383       .  S
C1158      F1162   1.383       .  S
C1158      F1163   1.383       .  S
C1158      F1164   1.385       .  S
C1165      C1166   1.411       .  A
C1165      C1170   1.404       .  A
C1165      H1172   1.082       .  S
C1166      C1167   1.422   1_554  A
C1167      C1168   1.406   1_556  A
C1167      C1174   1.522       .  S
C1168      C1169   1.414       .  A
C1168      H1173   1.081   1_554  S
C1169      C1170   1.422       .  A
C1170      C1171   1.519       .  S
C1171      F1175   1.385       .  S
C1171      F1176   1.382       .  S
C1171      F1177   1.383       .  S
C1174      F1178   1.382       .  S
C1174      F1179   1.383   1_556  S
C1174      F1180   1.386   1_556  S
C1181      C2394   1.413   1_556  A
C1181      C1186   1.404       .  A
C1181      H1188   1.082       .  S
C1182      C2393   1.413   1_454  A
C1182      C1183   1.423       .  A
C1183      C1184   1.401       .  A
C1183      C1190   1.521   1_554  S
C1184      C1185   1.412   1_454  A
C1184      H1189   1.077       .  S
C1185      C2398   1.419       .  A
C1186      C2397   1.419       .  A
C1186      C1187   1.518       .  S
C1187      F1191   1.385       .  S
C1187      F1192   1.381       .  S
C1187      F1193   1.383       .  S
C1190      F1194   1.380   1_556  S
C1190      F1195   1.380       .  S
C1190      F1196   1.386       .  S
C1197      C1202   1.401       .  A
C1197      H1204   1.084       .  S
C1198      C1199   1.416       .  A
C1199      C1200   1.406       .  A
C1199      C1206   1.517       .  S
C1200      C1201   1.401       .  A
C1200      H1205   1.083       .  S
C1202      C1203   1.519       .  S
C1203      F1207   1.385       .  S
C1203      F1208   1.377       .  S
C1203      F1209   1.381       .  S
C1206      F1210   1.383       .  S
C1206      F1211   1.382       .  S
C1206      F1212   1.384       .  S
C1213      C1214   1.406       .  A
C1213      C1791   1.509       .  S
C1214      C1215   1.391   1_556  A
C1214      H1219   1.082       .  S
C1215      C1804   1.471       .  S
C1216      C1217   1.408       .  A
C1216      H1220   1.082   1_655  S
C1217      C1218   1.414       .  A
C1217      C1775   1.510       .  S
C1218      H1221   1.069       .  S
C1222      C1223   1.406       .  A
C1222      C1227   1.418       .  A
C1222      C1740   1.519       .  S
C1223      C1224   1.405       .  A
C1223      H1228   1.074       .  S
C1224      C1225   1.395       .  A
C1224      C1756   1.482       .  S
C1225      C1226   1.399       .  A
C1225      H1229   1.080       .  S
C1226      C1227   1.407       .  A
C1226      C1727   1.487       .  S
C1227      H1230   1.081       .  S
C1231      C1232   1.402       .  A
C1231      C1236   1.407       .  A
C1231      C1692   1.495       .  S
C1232      C1233   1.399       .  A
C1232      H1237   1.079       .  S
C1233      C1234   1.399       .  A
C1233      C1708   1.470       .  S
C1234      C1235   1.401       .  A
C1234      H1238   1.081       .  S
C1235      C1236   1.403       .  A
C1235      C1676   1.484       .  S
C1236      H1239   1.083       .  S
C1240      C1241   1.407       .  A
C1240      C1245   1.408       .  A
C1240      C1644   1.485       .  S
C1241      C1242   1.408       .  A
C1241      H1246   1.079       .  S
C1242      C1243   1.403   1_556  A
C1242      C1772   1.503   1_556  S
C1243      C1244   1.402       .  A
C1243      H1247   1.082       .  S
C1244      C1245   1.406   1_554  A
C1244      C1660   1.490       .  S
C1245      H1248   1.082       .  S
C1249      C1250   1.405       .  A
C1249      C1254   1.409       .  A
C1249      C1628   1.484       .  S
C1250      C1251   1.402       .  A
C1250      H1255   1.084       .  S
C1251      C1252   1.396       .  A
C1251      C1724   1.475       .  S
C1252      C1253   1.400       .  A
C1252      H1256   1.085       .  S
C1253      C1254   1.408       .  A
C1253      C1612   1.481       .  S
C1254      H1257   1.083       .  S
C1258      C1259   1.401       .  A
C1258      C1263   1.405       .  A
C1258      C1596   1.482       .  S
C1259      C1260   1.400       .  A
C1259      H1264   1.084       .  S
C1260      C1261   1.401       .  A
C1260      C1679   1.475       .  S
C1261      C1262   1.403       .  A
C1261      H1265   1.084       .  S
C1262      C1263   1.405       .  A
C1262      C1580   1.480       .  S
C1263      H1266   1.083       .  S
C1267      C1268   1.407       .  A
C1267      C1878   1.419   1_554  A
C1267      C1548   1.506       .  S
C1268      C1269   1.397       .  A
C1268      H1273   1.079       .  S
C1269      C1876   1.391   1_554  A
C1269      C2413   1.474       .  S
C1270      C1875   1.391   1_556  A
C1270      C1271   1.404       .  A
C1270      H1274   1.084       .  S
C1271      C1272   1.414   1_545  A
C1271      C1567   1.500       .  S
C1272      C1873   1.419   1_556  A
C1272      H1275   1.078       .  S
C1276      C1281   1.409       .  A
C1276      C1535   1.488       .  S
C1277      C1278   1.403       .  A
C1277      H1282   1.081       .  S
C1278      C1695   1.489       .  S
C1279      C1280   1.402       .  A
C1279      H1283   1.080       .  S
C1280      C1281   1.405       .  A
C1280      C1516   1.486       .  S
C1281      H1284   1.081       .  S
C1285      C1286   1.400       .  A
C1285      C1290   1.407       .  A
C1285      C1487   1.473       .  S
C1286      C1893   1.394       .  A
C1286      H1291   1.085       .  S
C1287      C1892   1.394   1_545  A
C1287      C1288   1.396       .  A
C1287      C1711   1.469       .  S
C1288      C1895   1.401   1_545  A
C1288      H1292   1.084       .  S
C1289      C1894   1.401       .  A
C1289      C1290   1.405       .  A
C1289      C1503   1.476       .  S
C1290      H1293   1.083       .  S
O1294      C1309   1.256       .  A
O1294     Al1302   1.883       .  S
C1295      C1599   1.477       .  S
C1295      O1305   1.257       .  A
C1295      O1296   1.267       .  A
O1296     Al1298   1.935       .  S
O1297      C1299   1.256       .  A
O1297     Al1298   1.883       .  S
Al1298     O1306   1.895       .  S
Al1298     O1308   1.946       .  S
Al1298     O1307   1.781       .  S
C1299      C1519   1.482       .  S
C1299      O1312   1.262       .  A
O1300      C1310   1.254       .  A
O1300     Al1302   1.871       .  S
O1301      C1314   1.259       .  A
O1301     Al1311   1.899       .  S
Al1302     O1315   1.920       .  S
Al1302     O1312   1.924       .  S
Al1302     O1307   1.779       .  S
O1303      C1310   1.266       .  A
O1303     Al1311   1.940       .  S
O1304      C1313   1.267       .  A
O1304     Al1311   1.939       .  S
O1305     Al1311   1.885       .  S
O1306      C1313   1.259       .  A
O1307     Al1311   1.787       .  S
O1308      C1309   1.268       .  A
C1309      C1471   1.476       .  S
C1310      C1484   1.471       .  S
C1313      C1663   1.484       .  S
C1314      C1551   1.491       .  S
C1314      O1315   1.266       .  A
C1316      C1317   1.408       .  A
C1316      C1455   1.507       .  S
C1317      H1322   1.077       .  S
C1318      C1319   1.401       .  A
C1318      C1788   1.505       .  S
C1319      C1320   1.405       .  A
C1319      H1323   1.078       .  S
C1320      C1321   1.411   1_554  A
C1320      C1468   1.485       .  S
C1321      H1324   1.078       .  S
C1325      C1932   1.400   1_545  A
C1325      C1330   1.404       .  A
C1325      C1423   1.481       .  S
C1326      C1931   1.400       .  A
C1326      C1327   1.405       .  A
C1326      H1331   1.083       .  S
C1327      C1934   1.400       .  A
C1327      C1743   1.491       .  S
C1328      C1933   1.400   1_545  A
C1328      C1329   1.405       .  A
C1328      H1332   1.081   1_545  S
C1329      C1330   1.406       .  A
C1329      C1436   1.486       .  S
C1330      H1333   1.080       .  S
C1334      C1339   1.412       .  A
C1334      C1404   1.493       .  S
C1335      C1336   1.398       .  A
C1335      H1340   1.083       .  S
C1336      C1759   1.472       .  S
C1337      C1338   1.399       .  A
C1337      H1341   1.084       .  S
C1338      C1339   1.406       .  A
C1338      C1388   1.478       .  S
C1339      H1342   1.083       .  S
O1343      C1358   1.261       .  A
O1343     Al1351   1.903       .  S
C1344      C1631   1.475       .  S
C1344      O1354   1.260       .  A
C1344      O1345   1.262       .  A
O1345     Al1347   1.922       .  S
O1346      C1348   1.260       .  A
O1346     Al1347   1.895       .  S
Al1347     O1355   1.896       .  S
Al1347     O1357   1.931       .  S
Al1347     O1356   1.784       .  S
C1348      C1439   1.481       .  S
C1348      O1361   1.263       .  A
O1349      C1359   1.255       .  A
O1349     Al1351   1.883       .  S
O1350      C1363   1.262       .  A
O1350     Al1360   1.907       .  S
Al1351     O1364   1.927       .  S
Al1351     O1361   1.920       .  S
Al1351     O1356   1.784       .  S
O1352      C1359   1.266       .  A
O1352     Al1360   1.940       .  S
O1353      C1362   1.266       .  A
O1353     Al1360   1.931       .  S
O1354     Al1360   1.903       .  S
O1355      C1362   1.262       .  A
O1356     Al1360   1.783       .  S
O1357      C1358   1.264       .  A
C1358      C1564   1.495       .  S
C1359      C1391   1.478       .  S
C1362      C1647   1.477       .  S
C1363      C1452   1.499       .  S
C1363      O1364   1.261       .  A
O1365      C1380   1.255       .  A
O1365     Al1373   1.877       .  S
C1366      C2106   1.486       .  S
C1366      O1982   1.257       .  A
C1366      O1367   1.273   1_565  A
O1367     Al1369   1.970       .  S
O1368      C1370   1.261       .  A
O1368     Al1369   1.901       .  S
Al1369     O1377   1.891       .  S
Al1369     O1379   1.957       .  S
Al1369     O1378   1.780       .  S
C1370      C1532   1.501       .  S
O1371      C1381   1.259       .  A
O1371     Al1979   1.888       .  S
O1372      C1385   1.258       .  A
Al1373     O1977   1.888   1_545  S
Al1373     O1992   1.938   1_545  S
Al1373     O1383   1.947       .  S
O1374      C1381   1.266       .  A
O1375      C1990   1.266       .  A
O1375     Al1382   1.934       .  S
O1376      C1972   1.257       .  A
O1376     Al1382   1.884       .  S
O1377      C1384   1.258       .  A
O1378     Al1988   1.785   1_545  S
C1380      C1407   1.486       .  S
C1381      C1583   1.474       .  S
Al1382     O1984   1.785       .  S
C1384      C1420   1.478       .  S
C1384      O1981   1.266   1_545  A
C1385      C1615   1.477       .  S
C1385      O1386   1.267       .  A
O1386     Al1979   1.938       .  S
C1387      C1388   1.395       .  A
C1387      C1392   1.401       .  A
C1387      H1394   1.083       .  S
C1388      C1389   1.417       .  A
C1389      C1390   1.411       .  A
C1389      C1396   1.515       .  S
C1390      C1391   1.401       .  A
C1390      H1395   1.080       .  S
C1391      C1392   1.414       .  A
C1392      C1393   1.506       .  S
C1393      F1397   1.385       .  S
C1393      F1398   1.382       .  S
C1393      F1399   1.381       .  S
C1396      F1400   1.383       .  S
C1396      F1401   1.378       .  S
C1396      F1402   1.385       .  S
C1403      C1404   1.401       .  A
C1403      C1408   1.406       .  A
C1403      H1410   1.082       .  S
C1405      C1406   1.407       .  A
C1405      C1412   1.519       .  S
C1406      H1411   1.083       .  S
C1407      C1408   1.426       .  A
C1408      C1409   1.522       .  S
C1409      F1413   1.385       .  S
C1409      F1414   1.378       .  S
C1409      F1415   1.375       .  S
C1412      F1416   1.383       .  S
C1412      F1417   1.383       .  S
C1412      F1418   1.385       .  S
C1419      C1420   1.402       .  A
C1419      C1424   1.406       .  A
C1419      H2032   1.082   1_545  S
C1420      C1421   1.416       .  A
C1421      C1422   1.408       .  A
C1421      C1428   1.516       .  S
C1422      C1423   1.404       .  A
C1422      H1427   1.084       .  S
C1423      C1424   1.416       .  A
C1424      C2031   1.519       .  S
C1425      C2030   1.519       .  S
C1425      F1429   1.384       .  S
C1425      F1430   1.381       .  S
C1425      F2037   1.383       .  S
H1426      C2025   1.082       .  S
C1428      F2038   1.382   1_545  S
C1428      F1433   1.382       .  S
C1428      F1434   1.385       .  S
F1431      C2031   1.383       .  S
F1432      C2034   1.382       .  S
C1435      C1436   1.406       .  A
C1435      C1440   1.405       .  A
C1435      H1442   1.083       .  S
C1436      C1437   1.418       .  A
C1437      C1438   1.408       .  A
C1437      C1444   1.520       .  S
C1438      C1439   1.405       .  A
C1438      H1443   1.083       .  S
C1439      C1440   1.417       .  A
C1440      C1441   1.519       .  S
C1441      F1445   1.385       .  S
C1441      F1446   1.382       .  S
C1441      F1447   1.383       .  S
C1444      F1448   1.383       .  S
C1444      F1449   1.381       .  S
C1444      F1450   1.385       .  S
C1451      C1452   1.411       .  A
C1451      C1456   1.417       .  A
C1451      H1458   1.080       .  S
C1452      C1453   1.418       .  A
C1453      C1454   1.397       .  A
C1453      C1460   1.524       .  S
C1454      C1455   1.409       .  A
C1454      H1459   1.084       .  S
C1455      C1456   1.426       .  A
C1456      C1457   1.518       .  S
C1457      F1461   1.385   1_556  S
C1457      F1462   1.380       .  S
C1457      F1463   1.384   1_556  S
C1460      F1464   1.380       .  S
C1460      F1465   1.375       .  S
C1460      F1466   1.384       .  S
C1467      C1468   1.401       .  A
C1467      C1472   1.406       .  A
C1467      H1474   1.083       .  S
C1468      C1469   1.419       .  A
C1469      C1470   1.410       .  A
C1469      C1476   1.515   1_554  S
C1470      C1471   1.400       .  A
C1470      H1475   1.083       .  S
C1471      C1472   1.416       .  A
C1472      C1473   1.516       .  S
C1473      F1477   1.384       .  S
C1473      F1478   1.383       .  S
C1473      F1479   1.381       .  S
C1476      F1480   1.382       .  S
C1476      F1481   1.377       .  S
C1476      F1482   1.385       .  S
C1483      C1484   1.400       .  A
C1483      C1488   1.405       .  A
C1483      H1490   1.085       .  S
C1484      C1485   1.417       .  A
C1485      C1486   1.403       .  A
C1485      C1492   1.519       .  S
C1486      C1487   1.400       .  A
C1486      H1491   1.083       .  S
C1487      C1488   1.419       .  A
C1488      C1489   1.518       .  S
C1489      F1493   1.384       .  S
C1489      F1494   1.382       .  S
C1489      F1495   1.383       .  S
C1492      F1496   1.382       .  S
C1492      F1497   1.383       .  S
C1492      F1498   1.384       .  S
C1499      C1500   1.405       .  A
C1499      C1504   1.411       .  A
C1499      H1506   1.082       .  S
C1500      C2107   1.414       .  A
C1500      C1972   1.486       .  S
C1501      C2106   1.414   1_545  A
C1501      C1502   1.402   1_545  A
C1501      C1508   1.499       .  S
C1502      C2109   1.396       .  A
C1502      H1507   1.084   1_565  S
C1503      C2108   1.396       .  A
C1503      C1504   1.414       .  A
C1504      C1505   1.516       .  S
C1505      F1509   1.384       .  S
C1505      F1510   1.383       .  S
C1505      F1511   1.383       .  S
C1508      F1512   1.372       .  S
C1508      F1513   1.383   1_545  S
C1508      F1514   1.385       .  S
C1515      C1516   1.406       .  A
C1515      C1520   1.405       .  A
C1515      H1522   1.082       .  S
C1516      C1517   1.417       .  A
C1517      C1518   1.407       .  A
C1517      C1524   1.520       .  S
C1518      C1519   1.407       .  A
C1518      H1523   1.083       .  S
C1519      C1520   1.416       .  A
C1520      C1521   1.519       .  S
C1521      F1525   1.385       .  S
C1521      F1526   1.382       .  S
C1521      F1527   1.383       .  S
C1524      F1528   1.383       .  S
C1524      F1529   1.381       .  S
C1524      F1530   1.385       .  S
C1531      C1536   1.407       .  A
C1531      H1538   1.077       .  S
C1532      C1533   1.420       .  A
C1533      C1534   1.403       .  A
C1533      C1540   1.500       .  S
C1534      C1535   1.399       .  A
C1534      H1539   1.083       .  S
C1536      C1537   1.519       .  S
C1537      F1541   1.384       .  S
C1537      F1542   1.383       .  S
C1537      F1543   1.382       .  S
C1540      F1544   1.381       .  S
C1540      F1545   1.383       .  S
C1540      F1546   1.385       .  S
C1547      C1548   1.409       .  A
C1547      C1552   1.412       .  A
C1547      H1554   1.082       .  S
C1548      C1549   1.428       .  A
C1549      C1550   1.403       .  A
C1549      C1556   1.518       .  S
C1550      C1551   1.401       .  A
C1550      H1555   1.085       .  S
C1551      C1552   1.422       .  A
C1552      C1553   1.519       .  S
C1553      F1557   1.385       .  S
C1553      F1558   1.383       .  S
C1553      F1559   1.383       .  S
C1556      F1560   1.376   1_554  S
C1556      F1561   1.384       .  S
C1556      F1562   1.385       .  S
C1563      C1564   1.408       .  A
C1563      C1568   1.415       .  A
C1563      H1570   1.083       .  S
C1564      C1565   1.422       .  A
C1565      C1566   1.404       .  A
C1565      C1572   1.519       .  S
C1566      C1567   1.405       .  A
C1566      H1571   1.082       .  S
C1567      C1568   1.422       .  A
C1568      C1569   1.520       .  S
C1569      F1573   1.384   1_556  S
C1569      F1574   1.381       .  S
C1569      F1575   1.383   1_556  S
C1572      F1576   1.378       .  S
C1572      F1577   1.383       .  S
C1572      F1578   1.385       .  S
C1579      C1580   1.401       .  A
C1579      C1584   1.406       .  A
C1579      H1586   1.083       .  S
C1580      C1581   1.420       .  A
C1581      C1582   1.405       .  A
C1581      C1588   1.517       .  S
C1582      C1583   1.399       .  A
C1582      H1587   1.085       .  S
C1583      C1584   1.418       .  A
C1584      C1585   1.518       .  S
C1585      F1589   1.384       .  S
C1585      F1590   1.382       .  S
C1585      F1591   1.381       .  S
C1588      F1592   1.384       .  S
C1588      F1593   1.381       .  S
C1588      F1594   1.383       .  S
C1595      C1596   1.407       .  A
C1595      C1600   1.410       .  A
C1595      H1602   1.083       .  S
C1596      C1597   1.417       .  A
C1597      C1598   1.404       .  A
C1597      C1604   1.521       .  S
C1598      C1599   1.401       .  A
C1598      H1603   1.079       .  S
C1599      C1600   1.413       .  A
C1600      C1601   1.516       .  S
C1601      F1605   1.384       .  S
C1601      F1606   1.382       .  S
C1601      F1607   1.384       .  S
C1604      F1608   1.384       .  S
C1604      F1609   1.381       .  S
C1604      F1610   1.385       .  S
C1611      C1612   1.404       .  A
C1611      C1616   1.407       .  A
C1611      H1618   1.084       .  S
C1612      C1613   1.415       .  A
C1613      C1614   1.408       .  A
C1613      C1620   1.518       .  S
C1614      C1615   1.403       .  A
C1614      H1619   1.084       .  S
C1615      C1616   1.413       .  A
C1616      C1617   1.513       .  S
C1617      F1621   1.385       .  S
C1617      F1622   1.378       .  S
C1617      F1623   1.382       .  S
C1620      F1624   1.383       .  S
C1620      F1625   1.382       .  S
C1620      F1626   1.384       .  S
C1627      C1628   1.404       .  A
C1627      C1632   1.410       .  A
C1627      H1634   1.083       .  S
C1628      C1629   1.417       .  A
C1629      C1630   1.407       .  A
C1629      C1636   1.517       .  S
C1630      C1631   1.401       .  A
C1630      H1635   1.084       .  S
C1631      C1632   1.413       .  A
C1632      C1633   1.515       .  S
C1633      F1637   1.384       .  S
C1633      F1638   1.383       .  S
C1633      F1639   1.381       .  S
C1636      F1640   1.381       .  S
C1636      F1641   1.383       .  S
C1636      F1642   1.385       .  S
C1643      C1644   1.406       .  A
C1643      C1648   1.410       .  A
C1643      H1650   1.084       .  S
C1644      C1645   1.415       .  A
C1645      C1646   1.408       .  A
C1645      C1652   1.516       .  S
C1646      C1647   1.403       .  A
C1646      H1651   1.084       .  S
C1647      C1648   1.413       .  A
C1648      C1649   1.514       .  S
C1649      F1653   1.384       .  S
C1649      F1654   1.382       .  S
C1649      F1655   1.384       .  S
C1652      F1656   1.383       .  S
C1652      F1657   1.381       .  S
C1652      F1658   1.385       .  S
C1659      C1660   1.402       .  A
C1659      C1664   1.402       .  A
C1659      H1666   1.083       .  S
C1660      C1661   1.420       .  A
C1661      C1662   1.413       .  A
C1661      C1668   1.517   1_554  S
C1662      C1663   1.404       .  A
C1662      H1667   1.083       .  S
C1663      C1664   1.416       .  A
C1664      C1665   1.512       .  S
C1665      F1669   1.385       .  S
C1665      F1670   1.380       .  S
C1665      F1671   1.380       .  S
C1668      F1672   1.381       .  S
C1668      F1673   1.384       .  S
C1668      F1674   1.384       .  S
C1675      C1676   1.406       .  A
C1675      C1680   1.400       .  A
C1675      H1682   1.083       .  S
C1676      C1677   1.420       .  A
C1677      C1678   1.407       .  A
C1677      C1684   1.519       .  S
C1678      C1679   1.403       .  A
C1678      H1683   1.084       .  S
C1679      C1680   1.413       .  A
C1680      C1681   1.518       .  S
C1681      F1685   1.385       .  S
C1681      F1686   1.380       .  S
C1681      F1687   1.383       .  S
C1684      F1688   1.383       .  S
C1684      F1689   1.383       .  S
C1684      F1690   1.384       .  S
C1691      C1692   1.407       .  A
C1691      C1696   1.400       .  A
C1691      H1698   1.082       .  S
C1692      C1693   1.424       .  A
C1693      C1694   1.403       .  A
C1693      C1700   1.521       .  S
C1694      C1695   1.406       .  A
C1694      H1699   1.083       .  S
C1695      C1696   1.422       .  A
C1696      C1697   1.524       .  S
C1697      F1701   1.385       .  S
C1697      F1702   1.381       .  S
C1697      F1703   1.383       .  S
C1700      F1704   1.383       .  S
C1700      F1705   1.381       .  S
C1700      F1706   1.385       .  S
C1707      C1708   1.402       .  A
C1707      C1712   1.398       .  A
C1707      H1714   1.083       .  S
C1708      C1709   1.411       .  A
C1709      C1710   1.407       .  A
C1709      C1716   1.516       .  S
C1710      C1711   1.405       .  A
C1710      H1715   1.083       .  S
C1711      C1712   1.411       .  A
C1712      C1713   1.519       .  S
C1713      F1717   1.385       .  S
C1713      F1718   1.383       .  S
C1713      F1719   1.382       .  S
C1716      F1720   1.383       .  S
C1716      F1721   1.382       .  S
C1716      F1722   1.384       .  S
C1723      C1724   1.401       .  A
C1723      C1728   1.406       .  A
C1723      H1730   1.085       .  S
C1724      C1725   1.413       .  A
C1725      C1726   1.403       .  A
C1725      C1732   1.519       .  S
C1726      C1727   1.407       .  A
C1726      H1731   1.083       .  S
C1727      C1728   1.421       .  A
C1728      C1729   1.518       .  S
C1729      F1733   1.384       .  S
C1729      F1734   1.382       .  S
C1729      F1735   1.383       .  S
C1732      F1736   1.382       .  S
C1732      F1737   1.381       .  S
C1732      F1738   1.385       .  S
C1739      C1740   1.413       .  A
C1739      C1744   1.404       .  A
C1739      H1746   1.080       .  S
C1740      C1741   1.437       .  A
C1741      C1742   1.406       .  A
C1741      C1748   1.521       .  S
C1742      C1743   1.399       .  A
C1742      H1747   1.083       .  S
C1743      C1744   1.418       .  A
C1744      C1745   1.523       .  S
C1745      F1749   1.385       .  S
C1745      F2356   1.381       .  S
C1745      F1751   1.384       .  S
C1748      F1752   1.383       .  S
C1748      F1753   1.378       .  S
C1748      F1754   1.386       .  S
F1750      C2351   1.381       .  S
C1755      C1756   1.404       .  A
C1755      C1760   1.396       .  A
C1755      H1762   1.077       .  S
C1756      C1757   1.418       .  A
C1757      C1758   1.407       .  A
C1757      C1764   1.517       .  S
C1758      C1759   1.405       .  A
C1758      H1763   1.084       .  S
C1759      C1760   1.410       .  A
C1760      C1761   1.518       .  S
C1761      F1765   1.385       .  S
C1761      F1766   1.379       .  S
C1761      F1767   1.383       .  S
C1764      F1768   1.383       .  S
C1764      F1769   1.383       .  S
C1764      F1770   1.385       .  S
C1771      C1772   1.411       .  A
C1771      C1776   1.404       .  A
C1771      H1778   1.082       .  S
C1772      C1773   1.422   1_554  A
C1773      C1774   1.406   1_556  A
C1773      C1780   1.522       .  S
C1774      C1775   1.414       .  A
C1774      H1779   1.081   1_554  S
C1775      C1776   1.422       .  A
C1776      C1777   1.519       .  S
C1777      F1781   1.385       .  S
C1777      F1782   1.382       .  S
C1777      F1783   1.383       .  S
C1780      F1784   1.382       .  S
C1780      F1785   1.383   1_556  S
C1780      F1786   1.386   1_556  S
C1787      C1792   1.404       .  A
C1787      H1794   1.082       .  S
C1788      C1789   1.423       .  A
C1789      C1790   1.401       .  A
C1789      C1796   1.521   1_554  S
C1790      C1791   1.412   1_554  A
C1790      H1795   1.077       .  S
C1792      C1793   1.518       .  S
C1793      F1797   1.385       .  S
C1793      F1798   1.381       .  S
C1793      F1799   1.383       .  S
C1796      F1800   1.380   1_556  S
C1796      F1801   1.380       .  S
C1796      F1802   1.386       .  S
C1803      C2410   1.397   1_556  A
C1803      C1808   1.401       .  A
C1803      H1810   1.084       .  S
C1804      C2409   1.397   1_544  A
C1804      C1805   1.416       .  A
C1805      C1806   1.406       .  A
C1805      C1812   1.517       .  S
C1806      C1807   1.401       .  A
C1806      H1811   1.083       .  S
C1807      C2414   1.419   1_544  A
C1807      C1875   1.474       .  S
C1808      C2413   1.419   1_556  A
C1808      C1809   1.519       .  S
C1809      F1813   1.385       .  S
C1809      F1814   1.377       .  S
C1809      F1815   1.381       .  S
C1812      F1816   1.383       .  S
C1812      F1817   1.382       .  S
C1812      F1818   1.384       .  S
C1819      C1820   1.406       .  A
C1819      C2397   1.509       .  S
C1820      C1821   1.391   1_556  A
C1820      H1825   1.082       .  S
C1821      C2410   1.471       .  S
C1822      C1823   1.408       .  A
C1822      H1826   1.082   1_655  S
C1823      C1824   1.414   1_565  A
C1823      C2381   1.510       .  S
C1824      H1827   1.069       .  S
C1828      C1829   1.406       .  A
C1828      C1833   1.418       .  A
C1828      C2346   1.519       .  S
C1829      C1830   1.405       .  A
C1829      H1834   1.074       .  S
C1830      C1831   1.395       .  A
C1830      C2362   1.482       .  S
C1831      C1832   1.399       .  A
C1831      H1835   1.080       .  S
C1832      C1833   1.407       .  A
C1832      C2333   1.487       .  S
C1833      H1836   1.081       .  S
C1837      C1838   1.402       .  A
C1837      C1842   1.407       .  A
C1837      C2298   1.495       .  S
C1838      C1839   1.399       .  A
C1838      H1843   1.079       .  S
C1839      C1840   1.399       .  A
C1839      C2314   1.470       .  S
C1840      C1841   1.401       .  A
C1840      H1844   1.081       .  S
C1841      C1842   1.403       .  A
C1841      C2282   1.484       .  S
C1842      H1845   1.083       .  S
C1846      C1847   1.407       .  A
C1846      C1851   1.408       .  A
C1846      C2250   1.485       .  S
C1847      C1848   1.408       .  A
C1847      H1852   1.079       .  S
C1848      C1849   1.403   1_556  A
C1848      C2378   1.503   1_556  S
C1849      C1850   1.402       .  A
C1849      H1853   1.082       .  S
C1850      C1851   1.406   1_554  A
C1850      C2266   1.490       .  S
C1851      H1854   1.082       .  S
C1855      C1856   1.405       .  A
C1855      C1860   1.409       .  A
C1855      C2234   1.484       .  S
C1856      C1857   1.402       .  A
C1856      H1861   1.084       .  S
C1857      C1858   1.396       .  A
C1857      C2330   1.475       .  S
C1858      C1859   1.400       .  A
C1858      H1862   1.085       .  S
C1859      C1860   1.408       .  A
C1859      C2218   1.481       .  S
C1860      H1863   1.083       .  S
C1864      C1865   1.401       .  A
C1864      C1869   1.405       .  A
C1864      C2202   1.482       .  S
C1865      C1866   1.400       .  A
C1865      H1870   1.084       .  S
C1866      C1867   1.401       .  A
C1866      C2285   1.475       .  S
C1867      C1868   1.403       .  A
C1867      H1871   1.084       .  S
C1868      C1869   1.405       .  A
C1868      C2186   1.480       .  S
C1869      H1872   1.083       .  S
C1873      C1874   1.407       .  A
C1873      C2154   1.506       .  S
C1874      C1875   1.397   1_565  A
C1874      H1879   1.079       .  S
C1876      C1877   1.404       .  A
C1876      H1880   1.084       .  S
C1877      C1878   1.414       .  A
C1877      C2173   1.500       .  S
C1878      H1881   1.078       .  S
C1882      C1887   1.409       .  A
C1882      C2141   1.488       .  S
C1883      C1884   1.403       .  A
C1883      H1888   1.081       .  S
C1884      C2301   1.489       .  S
C1885      C1886   1.402       .  A
C1885      H1889   1.080       .  S
C1886      C1887   1.405       .  A
C1886      C2122   1.486       .  S
C1887      H1890   1.081       .  S
C1891      C1892   1.400       .  A
C1891      C1896   1.407       .  A
C1891      C2093   1.473       .  S
C1892      H1897   1.085       .  S
C1893      C1894   1.396       .  A
C1893      C2317   1.469       .  S
C1894      H1898   1.084       .  S
C1895      C1896   1.405       .  A
C1895      C2109   1.476       .  S
C1896      H1899   1.083       .  S
O1900      C1915   1.256       .  A
O1900     Al1908   1.883       .  S
C1901      C2205   1.477       .  S
C1901      O1911   1.257       .  A
C1901      O1902   1.267       .  A
O1902     Al1904   1.935       .  S
O1903      C1905   1.256       .  A
O1903     Al1904   1.883       .  S
Al1904     O1912   1.895       .  S
Al1904     O1914   1.946       .  S
Al1904     O1913   1.781       .  S
C1905      C2125   1.482       .  S
C1905      O1918   1.262       .  A
O1906      C1916   1.254       .  A
O1906     Al1908   1.871       .  S
O1907      C1920   1.259       .  A
O1907     Al1917   1.899       .  S
Al1908     O1921   1.920       .  S
Al1908     O1918   1.924       .  S
Al1908     O1913   1.779       .  S
O1909      C1916   1.266       .  A
O1909     Al1917   1.940       .  S
O1910      C1919   1.267       .  A
O1910     Al1917   1.939       .  S
O1911     Al1917   1.885       .  S
O1912      C1919   1.259       .  A
O1913     Al1917   1.787       .  S
O1914      C1915   1.268       .  A
C1915      C2077   1.476       .  S
C1916      C2090   1.471       .  S
C1919      C2269   1.484       .  S
C1920      C2157   1.491       .  S
C1920      O1921   1.266       .  A
C1922      C1923   1.408       .  A
C1922      C2061   1.507       .  S
C1923      H1928   1.077       .  S
C1924      C1925   1.401       .  A
C1924      C2394   1.505       .  S
C1925      C1926   1.405       .  A
C1925      H1929   1.078       .  S
C1926      C1927   1.411   1_554  A
C1926      C2074   1.485       .  S
C1927      H1930   1.078       .  S
C1931      C1936   1.404       .  A
C1931      C2029   1.481       .  S
C1932      C1933   1.405       .  A
C1932      H1937   1.083       .  S
C1933      C2349   1.491       .  S
C1934      C1935   1.405       .  A
C1934      H1938   1.081       .  S
C1935      C1936   1.406       .  A
C1935      C2042   1.486       .  S
C1936      H1939   1.080       .  S
C1940      C1945   1.412       .  A
C1940      C2010   1.493       .  S
C1941      C1942   1.398       .  A
C1941      H1946   1.083       .  S
C1942      C2365   1.472       .  S
C1943      C1944   1.399       .  A
C1943      H1947   1.084       .  S
C1944      C1945   1.406       .  A
C1944      C1994   1.478       .  S
C1945      H1948   1.083       .  S
O1949      C1964   1.261       .  A
O1949     Al1957   1.903       .  S
C1950      C2237   1.475       .  S
C1950      O1960   1.260       .  A
C1950      O1951   1.262       .  A
O1951     Al1953   1.922       .  S
O1952      C1954   1.260       .  A
O1952     Al1953   1.895       .  S
Al1953     O1961   1.896       .  S
Al1953     O1963   1.931       .  S
Al1953     O1962   1.784       .  S
C1954      C2045   1.481       .  S
C1954      O1967   1.263       .  A
O1955      C1965   1.255       .  A
O1955     Al1957   1.883       .  S
O1956      C1969   1.262       .  A
O1956     Al1966   1.907       .  S
Al1957     O1970   1.927       .  S
Al1957     O1967   1.920       .  S
Al1957     O1962   1.784       .  S
O1958      C1965   1.266       .  A
O1958     Al1966   1.940       .  S
O1959      C1968   1.266       .  A
O1959     Al1966   1.931       .  S
O1960     Al1966   1.903       .  S
O1961      C1968   1.262       .  A
O1962     Al1966   1.783       .  S
O1963      C1964   1.264       .  A
C1964      C2170   1.495       .  S
C1965      C1997   1.478       .  S
C1968      C2253   1.477       .  S
C1969      C2058   1.499       .  S
C1969      O1970   1.261       .  A
O1971      C1986   1.255       .  A
O1971     Al1979   1.877       .  S
C1972      O1973   1.273       .  A
O1973     Al1975   1.970       .  S
O1974      C1976   1.261       .  A
O1974     Al1975   1.901       .  S
Al1975     O1983   1.891       .  S
Al1975     O1985   1.957       .  S
Al1975     O1984   1.780       .  S
C1976      C2138   1.501       .  S
O1977      C1987   1.259       .  A
O1978      C1991   1.258       .  A
Al1979     O1989   1.947       .  S
O1980      C1987   1.266       .  A
O1981     Al1988   1.934       .  S
O1982     Al1988   1.884       .  S
O1983      C1990   1.258       .  A
C1986      C2013   1.486       .  S
C1987      C2189   1.474       .  S
C1990      C2026   1.478       .  S
C1991      C2221   1.477       .  S
C1991      O1992   1.267       .  A
C1993      C1994   1.395       .  A
C1993      C1998   1.401       .  A
C1993      H2000   1.083       .  S
C1994      C1995   1.417       .  A
C1995      C1996   1.411       .  A
C1995      C2002   1.515       .  S
C1996      C1997   1.401       .  A
C1996      H2001   1.080       .  S
C1997      C1998   1.414       .  A
C1998      C1999   1.506       .  S
C1999      F2003   1.385       .  S
C1999      F2004   1.382       .  S
C1999      F2005   1.381       .  S
C2002      F2006   1.383       .  S
C2002      F2007   1.378       .  S
C2002      F2008   1.385       .  S
C2009      C2010   1.401       .  A
C2009      C2014   1.406       .  A
C2009      H2016   1.082       .  S
C2011      C2012   1.407       .  A
C2011      C2018   1.519       .  S
C2012      H2017   1.083       .  S
C2013      C2014   1.426       .  A
C2014      C2015   1.522       .  S
C2015      F2019   1.385       .  S
C2015      F2020   1.378       .  S
C2015      F2021   1.375       .  S
C2018      F2022   1.383       .  S
C2018      F2023   1.383       .  S
C2018      F2024   1.385       .  S
C2025      C2026   1.402       .  A
C2025      C2030   1.406       .  A
C2026      C2027   1.416       .  A
C2027      C2028   1.408       .  A
C2027      C2034   1.516       .  S
C2028      C2029   1.404       .  A
C2028      H2033   1.084       .  S
C2029      C2030   1.416       .  A
C2031      F2035   1.384       .  S
C2031      F2036   1.381   1_545  S
C2034      F2039   1.382       .  S
C2034      F2040   1.385       .  S
C2041      C2042   1.406       .  A
C2041      C2046   1.405       .  A
C2041      H2048   1.083       .  S
C2042      C2043   1.418       .  A
C2043      C2044   1.408       .  A
C2043      C2050   1.520       .  S
C2044      C2045   1.405       .  A
C2044      H2049   1.083       .  S
C2045      C2046   1.417       .  A
C2046      C2047   1.519       .  S
C2047      F2051   1.385       .  S
C2047      F2052   1.382       .  S
C2047      F2053   1.383       .  S
C2050      F2054   1.383       .  S
C2050      F2055   1.381       .  S
C2050      F2056   1.385       .  S
C2057      C2058   1.411       .  A
C2057      C2062   1.417       .  A
C2057      H2064   1.080       .  S
C2058      C2059   1.418       .  A
C2059      C2060   1.397       .  A
C2059      C2066   1.524       .  S
C2060      C2061   1.409       .  A
C2060      H2065   1.084       .  S
C2061      C2062   1.426       .  A
C2062      C2063   1.518       .  S
C2063      F2067   1.385   1_556  S
C2063      F2068   1.380       .  S
C2063      F2069   1.384   1_556  S
C2066      F2070   1.380       .  S
C2066      F2071   1.375       .  S
C2066      F2072   1.384       .  S
C2073      C2074   1.401       .  A
C2073      C2078   1.406       .  A
C2073      H2080   1.083       .  S
C2074      C2075   1.419       .  A
C2075      C2076   1.410       .  A
C2075      C2082   1.515   1_554  S
C2076      C2077   1.400       .  A
C2076      H2081   1.083       .  S
C2077      C2078   1.416       .  A
C2078      C2079   1.516       .  S
C2079      F2083   1.384       .  S
C2079      F2084   1.383       .  S
C2079      F2085   1.381       .  S
C2082      F2086   1.382       .  S
C2082      F2087   1.377       .  S
C2082      F2088   1.385       .  S
C2089      C2090   1.400       .  A
C2089      C2094   1.405       .  A
C2089      H2096   1.085       .  S
C2090      C2091   1.417       .  A
C2091      C2092   1.403       .  A
C2091      C2098   1.519       .  S
C2092      C2093   1.400       .  A
C2092      H2097   1.083       .  S
C2093      C2094   1.419       .  A
C2094      C2095   1.518       .  S
C2095      F2099   1.384       .  S
C2095      F2100   1.382       .  S
C2095      F2101   1.383       .  S
C2098      F2102   1.382       .  S
C2098      F2103   1.383       .  S
C2098      F2104   1.384       .  S
C2105      C2106   1.405       .  A
C2105      C2110   1.411       .  A
C2105      H2112   1.082       .  S
C2107      C2108   1.402       .  A
C2107      C2114   1.499       .  S
C2108      H2113   1.084       .  S
C2109      C2110   1.414       .  A
C2110      C2111   1.516       .  S
C2111      F2115   1.384       .  S
C2111      F2116   1.383       .  S
C2111      F2117   1.383       .  S
C2114      F2118   1.372       .  S
C2114      F2119   1.383       .  S
C2114      F2120   1.385       .  S
C2121      C2122   1.406       .  A
C2121      C2126   1.405       .  A
C2121      H2128   1.082       .  S
C2122      C2123   1.417       .  A
C2123      C2124   1.407       .  A
C2123      C2130   1.520       .  S
C2124      C2125   1.407       .  A
C2124      H2129   1.083       .  S
C2125      C2126   1.416       .  A
C2126      C2127   1.519       .  S
C2127      F2131   1.385       .  S
C2127      F2132   1.382       .  S
C2127      F2133   1.383       .  S
C2130      F2134   1.383       .  S
C2130      F2135   1.381       .  S
C2130      F2136   1.385       .  S
C2137      C2142   1.407       .  A
C2137      H2144   1.077       .  S
C2138      C2139   1.420       .  A
C2139      C2140   1.403       .  A
C2139      C2146   1.500       .  S
C2140      C2141   1.399       .  A
C2140      H2145   1.083       .  S
C2142      C2143   1.519       .  S
C2143      F2147   1.384       .  S
C2143      F2148   1.383       .  S
C2143      F2149   1.382       .  S
C2146      F2150   1.381       .  S
C2146      F2151   1.383       .  S
C2146      F2152   1.385       .  S
C2153      C2154   1.409       .  A
C2153      C2158   1.412       .  A
C2153      H2160   1.082       .  S
C2154      C2155   1.428       .  A
C2155      C2156   1.403       .  A
C2155      C2162   1.518       .  S
C2156      C2157   1.401       .  A
C2156      H2161   1.085       .  S
C2157      C2158   1.422       .  A
C2158      C2159   1.519       .  S
C2159      F2163   1.385       .  S
C2159      F2164   1.383       .  S
C2159      F2165   1.383       .  S
C2162      F2166   1.376   1_554  S
C2162      F2167   1.384       .  S
C2162      F2168   1.385       .  S
C2169      C2170   1.408       .  A
C2169      C2174   1.415       .  A
C2169      H2176   1.083       .  S
C2170      C2171   1.422       .  A
C2171      C2172   1.404       .  A
C2171      C2178   1.519       .  S
C2172      C2173   1.405       .  A
C2172      H2177   1.082       .  S
C2173      C2174   1.422       .  A
C2174      C2175   1.520       .  S
C2175      F2179   1.384   1_556  S
C2175      F2180   1.381       .  S
C2175      F2181   1.383   1_556  S
C2178      F2182   1.378       .  S
C2178      F2183   1.383       .  S
C2178      F2184   1.385       .  S
C2185      C2186   1.401       .  A
C2185      C2190   1.406       .  A
C2185      H2192   1.083       .  S
C2186      C2187   1.420       .  A
C2187      C2188   1.405       .  A
C2187      C2194   1.517       .  S
C2188      C2189   1.399       .  A
C2188      H2193   1.085       .  S
C2189      C2190   1.418       .  A
C2190      C2191   1.518       .  S
C2191      F2195   1.384       .  S
C2191      F2196   1.382       .  S
C2191      F2197   1.381       .  S
C2194      F2198   1.384       .  S
C2194      F2199   1.381       .  S
C2194      F2200   1.383       .  S
C2201      C2202   1.407       .  A
C2201      C2206   1.410       .  A
C2201      H2208   1.083       .  S
C2202      C2203   1.417       .  A
C2203      C2204   1.404       .  A
C2203      C2210   1.521       .  S
C2204      C2205   1.401       .  A
C2204      H2209   1.079       .  S
C2205      C2206   1.413       .  A
C2206      C2207   1.516       .  S
C2207      F2211   1.384       .  S
C2207      F2212   1.382       .  S
C2207      F2213   1.384       .  S
C2210      F2214   1.384       .  S
C2210      F2215   1.381       .  S
C2210      F2216   1.385       .  S
C2217      C2218   1.404       .  A
C2217      C2222   1.407       .  A
C2217      H2224   1.084       .  S
C2218      C2219   1.415       .  A
C2219      C2220   1.408       .  A
C2219      C2226   1.518       .  S
C2220      C2221   1.403       .  A
C2220      H2225   1.084       .  S
C2221      C2222   1.413       .  A
C2222      C2223   1.513       .  S
C2223      F2227   1.385       .  S
C2223      F2228   1.378       .  S
C2223      F2229   1.382       .  S
C2226      F2230   1.383       .  S
C2226      F2231   1.382       .  S
C2226      F2232   1.384       .  S
C2233      C2234   1.404       .  A
C2233      C2238   1.410       .  A
C2233      H2240   1.083       .  S
C2234      C2235   1.417       .  A
C2235      C2236   1.407       .  A
C2235      C2242   1.517       .  S
C2236      C2237   1.401       .  A
C2236      H2241   1.084       .  S
C2237      C2238   1.413       .  A
C2238      C2239   1.515       .  S
C2239      F2243   1.384       .  S
C2239      F2244   1.383       .  S
C2239      F2245   1.381       .  S
C2242      F2246   1.381       .  S
C2242      F2247   1.383       .  S
C2242      F2248   1.385       .  S
C2249      C2250   1.406       .  A
C2249      C2254   1.410       .  A
C2249      H2256   1.084       .  S
C2250      C2251   1.415       .  A
C2251      C2252   1.408       .  A
C2251      C2258   1.516       .  S
C2252      C2253   1.403       .  A
C2252      H2257   1.084       .  S
C2253      C2254   1.413       .  A
C2254      C2255   1.514       .  S
C2255      F2259   1.384       .  S
C2255      F2260   1.382       .  S
C2255      F2261   1.384       .  S
C2258      F2262   1.383       .  S
C2258      F2263   1.381       .  S
C2258      F2264   1.385       .  S
C2265      C2266   1.402       .  A
C2265      C2270   1.402       .  A
C2265      H2272   1.083       .  S
C2266      C2267   1.420       .  A
C2267      C2268   1.413       .  A
C2267      C2274   1.517   1_554  S
C2268      C2269   1.404       .  A
C2268      H2273   1.083       .  S
C2269      C2270   1.416       .  A
C2270      C2271   1.512       .  S
C2271      F2275   1.385       .  S
C2271      F2276   1.380       .  S
C2271      F2277   1.380       .  S
C2274      F2278   1.381       .  S
C2274      F2279   1.384       .  S
C2274      F2280   1.384       .  S
C2281      C2282   1.406       .  A
C2281      C2286   1.400       .  A
C2281      H2288   1.083       .  S
C2282      C2283   1.420       .  A
C2283      C2284   1.407       .  A
C2283      C2290   1.519       .  S
C2284      C2285   1.403       .  A
C2284      H2289   1.084       .  S
C2285      C2286   1.413       .  A
C2286      C2287   1.518       .  S
C2287      F2291   1.385       .  S
C2287      F2292   1.380       .  S
C2287      F2293   1.383       .  S
C2290      F2294   1.383       .  S
C2290      F2295   1.383       .  S
C2290      F2296   1.384       .  S
C2297      C2298   1.407       .  A
C2297      C2302   1.400       .  A
C2297      H2304   1.082       .  S
C2298      C2299   1.424       .  A
C2299      C2300   1.403       .  A
C2299      C2306   1.521       .  S
C2300      C2301   1.406       .  A
C2300      H2305   1.083       .  S
C2301      C2302   1.422       .  A
C2302      C2303   1.524       .  S
C2303      F2307   1.385       .  S
C2303      F2308   1.381       .  S
C2303      F2309   1.383       .  S
C2306      F2310   1.383       .  S
C2306      F2311   1.381       .  S
C2306      F2312   1.385       .  S
C2313      C2314   1.402       .  A
C2313      C2318   1.398       .  A
C2313      H2320   1.083       .  S
C2314      C2315   1.411       .  A
C2315      C2316   1.407       .  A
C2315      C2322   1.516       .  S
C2316      C2317   1.405       .  A
C2316      H2321   1.083       .  S
C2317      C2318   1.411       .  A
C2318      C2319   1.519       .  S
C2319      F2323   1.385       .  S
C2319      F2324   1.383       .  S
C2319      F2325   1.382       .  S
C2322      F2326   1.383       .  S
C2322      F2327   1.382       .  S
C2322      F2328   1.384       .  S
C2329      C2330   1.401       .  A
C2329      C2334   1.406       .  A
C2329      H2336   1.085       .  S
C2330      C2331   1.413       .  A
C2331      C2332   1.403       .  A
C2331      C2338   1.519       .  S
C2332      C2333   1.407       .  A
C2332      H2337   1.083       .  S
C2333      C2334   1.421       .  A
C2334      C2335   1.518       .  S
C2335      F2339   1.384       .  S
C2335      F2340   1.382       .  S
C2335      F2341   1.383       .  S
C2338      F2342   1.382       .  S
C2338      F2343   1.381       .  S
C2338      F2344   1.385       .  S
C2345      C2346   1.413       .  A
C2345      C2350   1.404       .  A
C2345      H2352   1.080       .  S
C2346      C2347   1.437       .  A
C2347      C2348   1.406       .  A
C2347      C2354   1.521       .  S
C2348      C2349   1.399       .  A
C2348      H2353   1.083       .  S
C2349      C2350   1.418       .  A
C2350      C2351   1.523       .  S
C2351      F2355   1.385       .  S
C2351      F2357   1.384       .  S
C2354      F2358   1.383       .  S
C2354      F2359   1.378       .  S
C2354      F2360   1.386       .  S
C2361      C2362   1.404       .  A
C2361      C2366   1.396       .  A
C2361      H2368   1.077       .  S
C2362      C2363   1.418       .  A
C2363      C2364   1.407       .  A
C2363      C2370   1.517       .  S
C2364      C2365   1.405       .  A
C2364      H2369   1.084       .  S
C2365      C2366   1.410       .  A
C2366      C2367   1.518       .  S
C2367      F2371   1.385       .  S
C2367      F2372   1.379       .  S
C2367      F2373   1.383       .  S
C2370      F2374   1.383       .  S
C2370      F2375   1.383       .  S
C2370      F2376   1.385       .  S
C2377      C2378   1.411       .  A
C2377      C2382   1.404       .  A
C2377      H2384   1.082       .  S
C2378      C2379   1.422   1_554  A
C2379      C2380   1.406   1_556  A
C2379      C2386   1.522       .  S
C2380      C2381   1.414       .  A
C2380      H2385   1.081   1_554  S
C2381      C2382   1.422       .  A
C2382      C2383   1.519       .  S
C2383      F2387   1.385       .  S
C2383      F2388   1.382       .  S
C2383      F2389   1.383       .  S
C2386      F2390   1.382       .  S
C2386      F2391   1.383   1_556  S
C2386      F2392   1.386   1_556  S
C2393      C2398   1.404       .  A
C2393      H2400   1.082       .  S
C2394      C2395   1.423       .  A
C2395      C2396   1.401       .  A
C2395      C2402   1.521   1_554  S
C2396      C2397   1.412   1_554  A
C2396      H2401   1.077       .  S
C2398      C2399   1.518       .  S
C2399      F2403   1.385       .  S
C2399      F2404   1.381       .  S
C2399      F2405   1.383       .  S
C2402      F2406   1.380   1_556  S
C2402      F2407   1.380       .  S
C2402      F2408   1.386       .  S
C2409      C2414   1.401       .  A
C2409      H2416   1.084       .  S
C2410      C2411   1.416       .  A
C2411      C2412   1.406       .  A
C2411      C2418   1.517       .  S
C2412      C2413   1.401       .  A
C2412      H2417   1.083       .  S
C2414      C2415   1.519       .  S
C2415      F2419   1.385       .  S
C2415      F2420   1.377       .  S
C2415      F2421   1.381       .  S
C2418      F2422   1.383       .  S
C2418      F2423   1.382       .  S
C2418      F2424   1.384       .  S
