geometry optimzed in LAMMPS
_audit_creation_date              2020-12-01 
_audit_creation_method            'lammps2cif' 
_symmetry_space_group_name_H-M    'P1' 
_symmetry_Int_Tables_number       1 
_symmetry_cell_setting            triclinic 
loop_ 
_symmetry_equiv_pos_as_xyz 
  x,y,z 
_cell_length_a                    67.47474718 
_cell_length_b                    67.37163663089177 
_cell_length_c                    67.26541558531935 
_cell_angle_alpha                 89.5567324751657 
_cell_angle_beta                  89.75795117101954 
_cell_angle_gamma                 90.070007372297 
loop_ 
_atom_site_label 
_atom_site_type_symbol 
_atom_site_fract_x 
_atom_site_fract_y 
_atom_site_fract_z 
_atom_site_charge 
Zn1        Zn  0.01406658  0.60421130  0.79658460     1.49700
Zn2        Zn  0.00687184  0.60633486  0.84235253     1.49400
Zn3        Zn  0.03394665  0.63944516  0.82181990     1.49100
Zn4        Zn  0.98850103  0.64072916  0.81464336     1.49500
O5          O  0.01076997  0.62252451  0.81870134    -1.83100
O6          O  0.01318061  0.57463963  0.80499680    -0.73700
O7          O  0.02732327  0.61328121  0.86272520    -0.73600
O8          O  0.05617135  0.62823374  0.80585229    -0.73100
O9          O  0.00793201  0.57643086  0.83746233    -0.73800
O10         O  0.04075651  0.60885468  0.78404251    -0.73400
O11         O  0.04280800  0.63996200  0.85050423    -0.73900
O12         O  0.99731422  0.66848341  0.80527962    -0.73300
O13         O  0.98079726  0.61334756  0.85459957    -0.74100
O14         O  0.02974071  0.66717163  0.81028250    -0.73500
O15         O  0.97063691  0.64099576  0.83925461    -0.73900
O16         O  0.97251914  0.63067637  0.79192017    -0.73900
O17         O  0.99221728  0.60884760  0.77681914    -0.73600
C18         C  0.01066531  0.56614835  0.82186262     0.78100
C19         C  0.03966055  0.62745240  0.86451158     0.78600
C20         C  0.05630530  0.61737185  0.79046476     0.77600
C21         C  0.01450826  0.67629168  0.80382859     0.78000
C22         C  0.96883176  0.62785636  0.85296342     0.79100
C23         C  0.97628070  0.61894278  0.77764352     0.78200
Zn24       Zn  0.98631139  0.33718482  0.81165546     1.49700
Zn25       Zn  0.01098029  0.36763984  0.83819381     1.49400
Zn26       Zn  0.03272710  0.33610769  0.80995075     1.49100
Zn27       Zn  0.01070524  0.37415071  0.79267891     1.49500
O28         O  0.01023460  0.35373470  0.81315168    -1.83100
O29         O  0.97371688  0.33405813  0.83907393    -0.73700
O30         O  0.03452721  0.35820709  0.85328910    -0.73600
O31         O  0.02434373  0.30881828  0.80108219    -0.73100
O32         O  0.98754568  0.35956257  0.85480321    -0.73800
O33         O  0.99160149  0.31053458  0.79808358    -0.73400
O34         O  0.04887547  0.33474484  0.83505955    -0.73900
O35         O  0.03068627  0.36743795  0.77143179    -0.73300
O36         O  0.01223941  0.39805804  0.83541653    -0.74100
O37         O  0.04987759  0.34578107  0.78752388    -0.73500
O38         O  0.01657863  0.40206148  0.80297909    -0.73900
O39         O  0.98328885  0.37694635  0.78246752    -0.73900
O40         O  0.96592978  0.35212233  0.79614668    -0.73600
C41         C  0.97486773  0.34557384  0.85403204     0.78100
C42         C  0.04775423  0.34496021  0.85087628     0.78600
C43         C  0.00795735  0.30138702  0.79547212     0.77600
C44         C  0.04639894  0.35697735  0.77263379     0.78000
C45         C  0.01513063  0.40935774  0.82036241     0.79100
C46         C  0.96695991  0.36809831  0.78603536     0.78200
Zn47       Zn  0.15480713  0.52311182  0.68665681     1.49700
Zn48       Zn  0.12521789  0.50461641  0.65311259     1.49400
Zn49       Zn  0.15258085  0.47751057  0.68025164     1.49100
Zn50       Zn  0.11501525  0.49894344  0.69894041     1.49500
O51         O  0.13670213  0.50140792  0.67966843    -1.83100
O52         O  0.15716970  0.54244040  0.66332801    -0.73700
O53         O  0.13486946  0.48244091  0.63476487    -0.73600
O54         O  0.17804210  0.48093427  0.69566939    -0.73100
O55         O  0.13546308  0.53045678  0.64148301    -0.73800
O56         O  0.18175575  0.51356673  0.69770921    -0.73400
O57         O  0.15871072  0.46837924  0.65280742    -0.73900
O58         O  0.11449580  0.47150704  0.71079202    -0.73300
O59         O  0.09451980  0.50556914  0.65399706    -0.74100
O60         O  0.13716615  0.45543509  0.69297797    -0.73500
O61         O  0.08780411  0.50265557  0.68622941    -0.73900
O62         O  0.11809531  0.51928862  0.72045939    -0.73900
O63         O  0.14318759  0.53794061  0.70945446    -0.73600
C64         C  0.14802497  0.54357851  0.64676347     0.78100
C65         C  0.14921861  0.47019874  0.63661471     0.78600
C66         C  0.18790403  0.49598263  0.70131492     0.77600
C67         C  0.12299643  0.45554912  0.70548717     0.78000
C68         C  0.08199509  0.50475247  0.66831446     0.79100
C69         C  0.12949068  0.53427398  0.72201871     0.78200
Zn70       Zn  0.84465803  0.49786918  0.66880545     1.49700
Zn71       Zn  0.88652851  0.52107980  0.67559321     1.49400
Zn72       Zn  0.86215178  0.50218487  0.71261210     1.49100
Zn73       Zn  0.88476968  0.47586347  0.68094481     1.49500
O74         O  0.86920396  0.49946064  0.68449169    -1.83100
O75         O  0.84332740  0.52285053  0.65148788    -0.73700
O76         O  0.88622472  0.54176688  0.69652410    -0.73600
O77         O  0.83249823  0.50114150  0.71706697    -0.73100
O78         O  0.87436688  0.53447778  0.65177613    -0.73800
O79         O  0.81964305  0.49548042  0.68728279    -0.73400
O80         O  0.87178326  0.52836942  0.72324315    -0.73900
O81         O  0.88162636  0.45823678  0.70443389    -0.73300
O82         O  0.91620254  0.51351955  0.67166402    -0.74100
O83         O  0.87318812  0.47920747  0.72847153    -0.73500
O84         O  0.91431778  0.48134814  0.67832778    -0.73900
O85         O  0.87563662  0.46141661  0.65702208    -0.73900
O86         O  0.84642770  0.47461406  0.64913048    -0.73600
C87         C  0.85660581  0.53498153  0.64527743     0.78100
C88         C  0.88046958  0.54280438  0.71451988     0.78600
C89         C  0.81754791  0.49777184  0.70608851     0.77600
C90         C  0.87877643  0.46212898  0.72266295     0.78000
C91         C  0.92462181  0.49675176  0.67443931     0.79100
C92         C  0.86031896  0.46208789  0.64610181     0.78200
Zn93       Zn  0.64166501  0.01225457  0.79003595     1.49700
Zn94       Zn  0.66058510  0.00906778  0.83295889     1.49400
Zn95       Zn  0.61900662  0.03113703  0.82649602     1.49100
Zn96       Zn  0.61947101  0.98560605  0.82291082     1.49500
O97         O  0.63538151  0.00938016  0.81814488    -1.83100
O98         O  0.67098463  0.01199600  0.78505143    -0.73700
O99         O  0.66204199  0.03300082  0.85133542    -0.73600
O100        O  0.61854451  0.05212779  0.80548315    -0.73100
O101        O  0.68524679  0.00780142  0.81440938    -0.73800
O102        O  0.63121200  0.03773442  0.77867141    -0.73400
O103        O  0.63076653  0.04342680  0.85032265    -0.73900
O104        O  0.58937198  0.99095477  0.82743667    -0.73300
O105        O  0.66024158  0.98536450  0.85153229    -0.74100
O106        O  0.59032815  0.02348360  0.83185865    -0.73500
O107        O  0.63094277  0.97092424  0.84630034    -0.73900
O108        O  0.62271083  0.96812291  0.79926590    -0.73900
O109        O  0.63179533  0.98892421  0.77493578    -0.73600
C110        C  0.68647580  0.00958424  0.79550489     0.78100
C111        C  0.64808914  0.04404277  0.85773080     0.78600
C112        C  0.62314794  0.05249122  0.78713131     0.77600
C113        C  0.58056456  0.00731562  0.83111719     0.78000
C114        C  0.64733609  0.97209962  0.85561858     0.79100
C115        C  0.62679104  0.97175079  0.78108976     0.78200
Zn116      Zn  0.38787179  0.01600614  0.83226395     1.49700
Zn117      Zn  0.36226000  0.99717831  0.79756161     1.49400
Zn118      Zn  0.38143640  0.97144242  0.83125470     1.49100
Zn119      Zn  0.34347012  0.99948821  0.84163043     1.49500
O120        O  0.36819836  0.99619543  0.82576885    -1.83100
O121        O  0.39013735  0.03494623  0.80979449    -0.73700
O122        O  0.37010836  0.97178166  0.78427195    -0.73600
O123        O  0.41174514  0.97362180  0.83264291    -0.73100
O124        O  0.37507559  0.02084593  0.78418690    -0.73800
O125        O  0.41621996  0.00584701  0.83658895    -0.73400
O126        O  0.37519971  0.95179578  0.81021770    -0.73900
O127        O  0.34366379  0.97789721  0.86399836    -0.73300
O128        O  0.33305116  0.99869084  0.79306378    -0.74100
O129        O  0.37149053  0.96135265  0.85706872    -0.73500
O130        O  0.31808936  0.99826252  0.82252584    -0.73900
O131        O  0.34559441  0.02607300  0.85712465    -0.73900
O132        O  0.37818776  0.03179561  0.85505275    -0.73600
C133        C  0.38517091  0.03491587  0.79159815     0.78100
C134        C  0.37284147  0.95455938  0.79164761     0.78600
C135        C  0.42328033  0.98837435  0.83517820     0.77600
C136        C  0.35670529  0.96472362  0.86830899     0.78000
C137        C  0.31720609  0.99830484  0.80338343     0.79100
C138        C  0.36115815  0.03573200  0.86219537     0.78200
Zn139      Zn  0.47641901  0.15259843  0.67031634     1.49700
Zn140      Zn  0.52248824  0.15832133  0.66915501     1.49400
Zn141      Zn  0.50400072  0.11931947  0.68998213     1.49100
Zn142      Zn  0.50231202  0.12329862  0.64369596     1.49500
O143        O  0.50141929  0.13827355  0.66826638    -1.83100
O144        O  0.48014599  0.18073706  0.67995847    -0.73700
O145        O  0.54369615  0.14948994  0.68796036    -0.73600
O146        O  0.48032852  0.12078955  0.70777479    -0.73100
O147        O  0.51278714  0.18475769  0.68052974    -0.73800
O148        O  0.45925861  0.14007522  0.69119349    -0.73400
O149        O  0.52824784  0.12592126  0.70554871    -0.73900
O150        O  0.50777260  0.09353262  0.64798202    -0.73300
O151        O  0.53525130  0.16120570  0.64208268    -0.74100
O152        O  0.50642088  0.09042656  0.68080458    -0.73500
O153        O  0.52297136  0.13528736  0.62569009    -0.73900
O154        O  0.47643638  0.12635055  0.62939864    -0.73900
O155        O  0.46109083  0.15116100  0.64485009    -0.73600
C156        C  0.49534553  0.19100584  0.68433042     0.78100
C157        C  0.54303378  0.13734645  0.70249126     0.78600
C158        C  0.46331453  0.12867229  0.70572465     0.77600
C159        C  0.50822098  0.08270351  0.66363284     0.78000
C160        C  0.53446517  0.15025036  0.62670384     0.79100
C161        C  0.46217669  0.13862032  0.63079578     0.78200
Zn162      Zn  0.50616893  0.84562228  0.67508037     1.49700
Zn163      Zn  0.50708810  0.86497025  0.71798848     1.49400
Zn164      Zn  0.52723307  0.88831625  0.68164818     1.49100
Zn165      Zn  0.48176543  0.88565288  0.68500792     1.49500
O166        O  0.50566982  0.87088253  0.68977648    -1.83100
O167        O  0.50599173  0.82077062  0.69380013    -0.73700
O168        O  0.53297898  0.87373134  0.72907083    -0.73600
O169        O  0.53968454  0.87753337  0.65688670    -0.73100
O170        O  0.50547087  0.83577015  0.72298143    -0.73800
O171        O  0.52971195  0.84595913  0.65574935    -0.73400
O172        O  0.54816892  0.88664236  0.70248199    -0.73900
O173        O  0.48658819  0.91528508  0.68078516    -0.73300
O174        O  0.48398810  0.87592039  0.73320506    -0.74100
O175        O  0.51924785  0.91785275  0.67814528    -0.73500
O176        O  0.46355039  0.88260333  0.70822230    -0.73900
O177        O  0.46769394  0.87406744  0.66202403    -0.73900
O178        O  0.48172341  0.84446268  0.65771519    -0.73600
C179        C  0.50511430  0.81995760  0.71279171     0.78100
C180        C  0.54824064  0.88100039  0.72059264     0.78600
C181        C  0.54049423  0.86025298  0.64927737     0.77600
C182        C  0.50210782  0.92588845  0.67850908     0.78000
C183        C  0.46679937  0.87993585  0.72665603     0.79100
C184        C  0.46845795  0.85726405  0.65351453     0.78200
Zn185      Zn  0.37902708  0.79957611  0.00273438     1.49700
Zn186      Zn  0.37798255  0.84605825  0.01062684     1.49400
Zn187      Zn  0.34184715  0.82402232  0.98840363     1.49100
Zn188      Zn  0.34780934  0.81596490  0.03345229     1.49500
O189        O  0.36199312  0.82166809  0.00891232    -1.83100
O190        O  0.40784990  0.80766658  0.00434706    -0.73700
O191        O  0.36725696  0.86610037  0.99010121    -0.73600
O192        O  0.35162095  0.81162676  0.96323296    -0.73100
O193        O  0.40864590  0.84044997  0.00775977    -0.73800
O194        O  0.37440477  0.79070723  0.97477969    -0.73400
O195        O  0.33812732  0.85283560  0.98158321    -0.73900
O196        O  0.31917183  0.80880698  0.02900862    -0.73300
O197        O  0.37229577  0.85870025  0.03749099    -0.74100
O198        O  0.31586439  0.80990535  0.99622585    -0.73500
O199        O  0.35003095  0.83879038  0.05206175    -0.73900
O200        O  0.35843050  0.79149213  0.04650564    -0.73900
O201        O  0.37488457  0.77692544  0.02190703    -0.73600
C202        C  0.41762042  0.82377881  0.00587819     0.78100
C203        C  0.35044278  0.86721753  0.98135214     0.78600
C204        C  0.36411960  0.79782112  0.96058047     0.77600
C205        C  0.30918020  0.80530618  0.01343915     0.78000
C206        C  0.36050143  0.85450898  0.05185185     0.79100
C207        C  0.36751879  0.77661298  0.03934857     0.78200
Zn208      Zn  0.64715340  0.81887787  0.02128011     1.49700
Zn209      Zn  0.61901362  0.84628528  0.99426396     1.49400
Zn210      Zn  0.64893309  0.81384939  0.97533608     1.49100
Zn211      Zn  0.60899617  0.80108845  0.99895913     1.49500
O212        O  0.63088635  0.82005149  0.99739119    -1.83100
O213        O  0.65065832  0.84607318  0.03295839    -0.73700
O214        O  0.62956807  0.85879320  0.96903802    -0.73600
O215        O  0.67527674  0.80104011  0.98399803    -0.73100
O216        O  0.62818731  0.86384745  0.01647229    -0.73800
O217        O  0.67364970  0.80508707  0.01663619    -0.73400
O218        O  0.65297316  0.83812111  0.95809550    -0.73900
O219        O  0.61009582  0.78280012  0.97550010    -0.73300
O220        O  0.58836526  0.84593385  0.99449342    -0.74100
O221        O  0.63587656  0.79409923  0.95793852    -0.73500
O222        O  0.58135040  0.81410789  0.99927837    -0.73900
O223        O  0.61132447  0.78553470  0.02422741    -0.73900
O224        O  0.63347556  0.80235126  0.04194215    -0.73600
C225        C  0.64113291  0.86215145  0.03012837     0.78100
C226        C  0.64338188  0.85436615  0.95683140     0.78600
C227        C  0.68251968  0.79841585  0.00131512     0.77600
C228        C  0.62104584  0.78261606  0.96004181     0.78000
C229        C  0.57566724  0.83205767  0.99711211     0.79100
C230        C  0.62052931  0.78876100  0.04039017     0.78200
Zn231      Zn  0.51053212  0.66659068  0.11970479     1.49700
Zn232      Zn  0.48606335  0.70103511  0.14035104     1.49400
Zn233      Zn  0.46571020  0.66161787  0.12421746     1.49100
Zn234      Zn  0.49285078  0.66041943  0.16378662     1.49500
O235        O  0.48870840  0.67250516  0.13733334    -1.83100
O236        O  0.52771086  0.69018071  0.11811936    -0.73700
O237        O  0.45940267  0.71002229  0.13066802    -0.73600
O238        O  0.47030925  0.65591684  0.09463288    -0.73100
O239        O  0.50869795  0.71562154  0.12688366    -0.73800
O240        O  0.50258799  0.66053819  0.09092195    -0.73400
O241        O  0.44371789  0.68153440  0.12487144    -0.73900
O242        O  0.47127640  0.63997422  0.16889950    -0.73300
O243        O  0.48735704  0.70875086  0.16908414    -0.74100
O244        O  0.45702947  0.63720332  0.13913189    -0.73500
O245        O  0.49324818  0.68119471  0.18631813    -0.73900
O246        O  0.51852729  0.64448137  0.16364417    -0.73900
O247        O  0.52708303  0.64510895  0.13160813    -0.73600
C248        C  0.52497086  0.70869298  0.12027433     0.78100
C249        C  0.44378791  0.70037427  0.12632038     0.78600
C250        C  0.48564058  0.65681189  0.08350718     0.77600
C251        C  0.45954716  0.63121929  0.15699861     0.78000
C252        C  0.49045114  0.69994402  0.18559125     0.79100
C253        C  0.52962216  0.63884622  0.14935471     0.78200
Zn254      Zn  0.47494751  0.67014678  0.88922716     1.49700
Zn255      Zn  0.49145406  0.70898067  0.86677330     1.49400
Zn256      Zn  0.52007195  0.67643826  0.88533626     1.49100
Zn257      Zn  0.49587064  0.66736877  0.84558426     1.49500
O258        O  0.49544255  0.68069002  0.87154994    -1.83100
O259        O  0.45351715  0.69031832  0.89168021    -0.73700
O260        O  0.51448095  0.72499948  0.87692610    -0.73600
O261        O  0.51636346  0.67061566  0.91500362    -0.73100
O262        O  0.46528629  0.71804496  0.87778631    -0.73800
O263        O  0.48425165  0.66426328  0.91792768    -0.73400
O264        O  0.53627773  0.70084652  0.88258594    -0.73900
O265        O  0.51985793  0.64913416  0.84404126    -0.73300
O266        O  0.49106576  0.71530390  0.83766233    -0.74100
O267        O  0.53534966  0.65444248  0.87268297    -0.73500
O268        O  0.49596926  0.68713063  0.82162986    -0.73900
O269        O  0.47207151  0.64913536  0.84440472    -0.73900
O270        O  0.46225088  0.64663585  0.87610928    -0.73600
C271        C  0.45161455  0.70846801  0.88679368     0.78100
C272        C  0.53206828  0.71912862  0.88036842     0.78600
C273        C  0.50139447  0.66597028  0.92571231     0.77600
C274        C  0.53382894  0.64537962  0.85621066     0.78000
C275        C  0.49349792  0.70594361  0.82148671     0.79100
C276        C  0.46127756  0.64127234  0.85796093     0.78200
Zn277      Zn  0.79002082  0.64586547  0.99005543     1.49700
Zn278      Zn  0.82089478  0.62409258  0.01793196     1.49400
Zn279      Zn  0.82738389  0.62140659  0.97325197     1.49100
Zn280      Zn  0.83332369  0.66406072  0.99394974     1.49500
O281        O  0.81791533  0.63918211  0.99377818    -1.83100
O282        O  0.77311028  0.63387190  0.01179697    -0.73700
O283        O  0.82430856  0.59406693  0.01364379    -0.73600
O284        O  0.80852774  0.62345034  0.95099159    -0.73100
O285        O  0.79644503  0.62715573  0.03415850    -0.73800
O286        O  0.78123772  0.63788935  0.96264863    -0.73400
O287        O  0.82908220  0.59158169  0.98120868    -0.73900
O288        O  0.85263804  0.66384095  0.97051276    -0.73300
O289        O  0.84358542  0.63519800  0.03320057    -0.74100
O290        O  0.85273369  0.63195496  0.96174810    -0.73500
O291        O  0.85059437  0.66432673  0.01884228    -0.73900
O292        O  0.81513256  0.68911139  0.99280850    -0.73900
O293        O  0.78527427  0.67528523  0.99191434    -0.73600
C294        C  0.77832571  0.62928134  0.02941164     0.78100
C295        C  0.82711745  0.58339622  0.99829590     0.78600
C296        C  0.79098604  0.62986828  0.94860070     0.77600
C297        C  0.85959169  0.64957170  0.96021996     0.78000
C298        C  0.85350122  0.65131621  0.03242719     0.79100
C299        C  0.79621798  0.69065659  0.99252421     0.78200
Zn300      Zn  0.82464465  0.35336409  0.01136721     1.49700
Zn301      Zn  0.81283432  0.35067228  0.96700776     1.49400
Zn302      Zn  0.80205726  0.39040485  0.99149207     1.49100
Zn303      Zn  0.84639667  0.38234313  0.98019913     1.49500
O304        O  0.82145820  0.36941180  0.98737267    -1.83100
O305        O  0.81006187  0.32681579  0.01002976    -0.73700
O306        O  0.79038430  0.36274125  0.95203932    -0.73600
O307        O  0.79144038  0.38848906  0.01926062    -0.73100
O308        O  0.80117665  0.32474777  0.97844151    -0.73800
O309        O  0.81194637  0.36723445  0.03413003    -0.73400
O310        O  0.78016550  0.38747663  0.97140890    -0.73900
O311        O  0.84410258  0.41309041  0.97766278    -0.73300
O312        O  0.83557830  0.34537345  0.94805184    -0.74100
O313        O  0.81361377  0.41862109  0.98873912    -0.73500
O314        O  0.85731859  0.36922090  0.95541364    -0.73900
O315        O  0.86657962  0.37614205  0.00140793    -0.73900
O316        O  0.85348149  0.35092729  0.01866238    -0.73600
C317        C  0.80092854  0.31787733  0.99616084     0.78100
C318        C  0.77815020  0.37648464  0.95620345     0.78600
C319        C  0.79809044  0.37993397  0.03482564     0.77600
C320        C  0.83034546  0.42516705  0.98265487     0.78000
C321        C  0.85205642  0.35425614  0.94510749     0.79100
C322        C  0.86788034  0.36263074  0.01470017     0.78200
Zn323      Zn  0.71202714  0.50078274  0.14639188     1.49700
Zn324      Zn  0.66900662  0.50125732  0.16577954     1.49400
Zn325      Zn  0.67627887  0.52094104  0.12212969     1.49100
Zn326      Zn  0.67720712  0.47616409  0.12680866     1.49500
O327        O  0.68377257  0.50005431  0.14062287    -1.83100
O328        O  0.71741702  0.50188495  0.17596454    -0.73700
O329        O  0.65190603  0.52618801  0.16540367    -0.73600
O330        O  0.69797372  0.54089880  0.12180648    -0.73100
O331        O  0.68769433  0.50012740  0.19022931    -0.73800
O332        O  0.72433093  0.52535359  0.13426053    -0.73400
O333        O  0.65238099  0.53468069  0.13322020    -0.73900
O334        O  0.67627584  0.47973293  0.09652873    -0.73300
O335        O  0.64897461  0.47864500  0.16715851    -0.74100
O336        O  0.67294871  0.51218675  0.09267098    -0.73500
O337        O  0.65152875  0.46524864  0.13709247    -0.73900
O338        O  0.69822556  0.45637543  0.13217595    -0.73900
O339        O  0.72484043  0.47546374  0.13672746    -0.73600
C340        C  0.70660092  0.50090029  0.19150722     0.78100
C341        C  0.64547999  0.53657711  0.15082456     0.78600
C342        C  0.71631650  0.54045343  0.12611092     0.77600
C343        C  0.67439815  0.49486748  0.08519499     0.78000
C344        C  0.64281442  0.46676364  0.15386121     0.79100
C345        C  0.71686576  0.45859745  0.13352262     0.78200
Zn346      Zn  0.68623780  0.48031623  0.85102123     1.49700
Zn347      Zn  0.69130566  0.52586596  0.85450157     1.49400
Zn348      Zn  0.65914084  0.50517532  0.88274340     1.49100
Zn349      Zn  0.70421736  0.49865346  0.89215592     1.49500
O350        O  0.68521858  0.50235617  0.87028193    -1.83100
O351        O  0.70066589  0.48729764  0.82426405    -0.73700
O352        O  0.66833533  0.54475144  0.85330865    -0.73600
O353        O  0.64214509  0.48268621  0.87310241    -0.73100
O354        O  0.70170662  0.52001638  0.82690803    -0.73800
O355        O  0.65851614  0.46868980  0.84786486    -0.73400
O356        O  0.64611738  0.53079552  0.87359862    -0.73900
O357        O  0.69184555  0.50027921  0.92026799    -0.73300
O358        O  0.71379037  0.53977031  0.86677433    -0.74100
O359        O  0.66004555  0.50487529  0.91358081    -0.73500
O360        O  0.72570935  0.51946268  0.89009288    -0.73900
O361        O  0.71602367  0.47147149  0.88997362    -0.73900
O362        O  0.70181626  0.45823777  0.86328692    -0.73600
C363        C  0.70574107  0.50430131  0.81735061     0.78100
C364        C  0.65150274  0.54481304  0.86189747     0.78600
C365        C  0.64322054  0.47009385  0.85907620     0.77600
C366        C  0.67403170  0.50278460  0.92619359     0.78000
C367        C  0.72674846  0.53532401  0.87970153     0.79100
C368        C  0.71300153  0.45691466  0.87841334     0.78200
Zn369      Zn  0.99330176  0.83789136  0.63330304     1.49700
Zn370      Zn  0.97458214  0.81008942  0.66621224     1.49400
Zn371      Zn  0.99771077  0.79184770  0.62884811     1.49100
Zn372      Zn  0.02008796  0.81335586  0.66531039     1.49500
O373        O  0.99671007  0.81327274  0.64811059    -1.83100
O374        O  0.96856995  0.85209616  0.64247300    -0.73700
O375        O  0.95568475  0.79121273  0.65458184    -0.73600
O376        O  0.99708137  0.80180933  0.59975466    -0.73100
O377        O  0.95958875  0.83530161  0.66968280    -0.73800
O378        O  0.99310136  0.83430052  0.60278819    -0.73400
O379        O  0.97351755  0.77440740  0.63240344    -0.73900
O380        O  0.04061846  0.79618353  0.65301335    -0.73300
O381        O  0.98215381  0.79829698  0.69264621    -0.74100
O382        O  0.02332977  0.77690299  0.63254542    -0.73500
O383        O  0.01495308  0.79994295  0.69276108    -0.73900
O384        O  0.03170194  0.84135800  0.66610936    -0.73900
O385        O  0.01547996  0.85580247  0.64094844    -0.73600
C386        C  0.95771724  0.85003107  0.65793335     0.78100
C387        C  0.95745816  0.77737902  0.64203705     0.78600
C388        C  0.99491722  0.81897054  0.59185774     0.77600
C389        C  0.03939677  0.78145405  0.64140701     0.78000
C390        C  0.99864898  0.79453820  0.70089548     0.79100
C391        C  0.02882251  0.85603079  0.65427478     0.78200
Zn392      Zn  0.02287689  0.81153257  0.36175669     1.49700
Zn393      Zn  0.97841028  0.80156709  0.35902865     1.49400
Zn394      Zn  0.00234828  0.78839297  0.39865154     1.49100
Zn395      Zn  0.99295357  0.83345337  0.39142214     1.49500
O396        O  0.99900737  0.80868948  0.37790639    -1.83100
O397        O  0.02108581  0.79590134  0.33540676    -0.73700
O398        O  0.96524194  0.77736043  0.36923677    -0.73600
O399        O  0.03106000  0.78086600  0.40006990    -0.73100
O400        O  0.98861463  0.79244646  0.33190272    -0.73800
O401        O  0.04544643  0.80112167  0.37793474    -0.73400
O402        O  0.98439030  0.76497917  0.39323827    -0.73900
O403        O  0.99182669  0.83079733  0.42210249    -0.73300
O404        O  0.95803760  0.82352285  0.35679883    -0.74100
O405        O  0.99644459  0.79855269  0.42686118    -0.73500
O406        O  0.96721627  0.84422505  0.38081179    -0.73900
O407        O  0.01335773  0.85387988  0.38369557    -0.73900
O408        O  0.02955422  0.84073383  0.35798728    -0.73600
C409        C  0.00620201  0.78961810  0.32554542     0.78100
C410        C  0.96953914  0.76370925  0.38164888     0.78600
C411        C  0.04640623  0.78899093  0.39249488     0.77600
C412        C  0.99336140  0.81585780  0.43382114     0.78000
C413        C  0.95550536  0.83931154  0.36683550     0.79100
C414        C  0.02589100  0.85527313  0.36953592     0.78200
Zn415      Zn  0.14848499  0.71977949  0.50764311     1.49700
Zn416      Zn  0.16113553  0.67556446  0.49720850     1.49400
Zn417      Zn  0.11981269  0.68300941  0.52074026     1.49100
Zn418      Zn  0.12314458  0.69519283  0.47666126     1.49500
O419        O  0.13835213  0.69335267  0.50078356    -1.83100
O420        O  0.17844208  0.72067106  0.50787166    -0.73700
O421        O  0.16064793  0.65479281  0.51934808    -0.73600
O422        O  0.12081368  0.70139908  0.54357818    -0.73100
O423        O  0.18784047  0.69107241  0.49701251    -0.73800
O424        O  0.13867309  0.72788292  0.53474013    -0.73400
O425        O  0.13007197  0.65712737  0.53197422    -0.73900
O426        O  0.09322270  0.69465288  0.48152316    -0.73300
O427        O  0.15768035  0.65985549  0.47172282    -0.74100
O428        O  0.09018133  0.68190020  0.51184300    -0.73500
O429        O  0.13007892  0.67265522  0.45889313    -0.73900
O430        O  0.12981677  0.72042946  0.46261145    -0.73900
O431        O  0.14097705  0.74001786  0.48664150    -0.73600
C432        C  0.19202394  0.70879172  0.50233849     0.78100
C433        C  0.14700293  0.64870963  0.53112708     0.78600
C434        C  0.12824892  0.71830375  0.54739122     0.77600
C435        C  0.08232194  0.68840218  0.49579000     0.78000
C436        C  0.14409316  0.66005914  0.45857337     0.79100
C437        C  0.13541411  0.73730570  0.46878264     0.78200
Zn438      Zn  0.88806721  0.70611988  0.49852111     1.49700
Zn439      Zn  0.85053333  0.68579826  0.47790494     1.49400
Zn440      Zn  0.88236743  0.66004599  0.49945179     1.49100
Zn441      Zn  0.85004610  0.68745047  0.52310089     1.49500
O442        O  0.86808287  0.68500753  0.50023983    -1.83100
O443        O  0.88543101  0.72036007  0.47204935    -0.73700
O444        O  0.84541751  0.65877959  0.46708459    -0.73600
O445        O  0.91278245  0.66313596  0.49921849    -0.73100
O446        O  0.86385050  0.70082231  0.45650220    -0.73800
O447        O  0.91698856  0.69574432  0.49938989    -0.73400
O448        O  0.87305722  0.64328416  0.47626262    -0.73900
O449        O  0.84960510  0.66092392  0.53874037    -0.73300
O450        O  0.82496367  0.70001953  0.48342031    -0.74100
O451        O  0.87490486  0.64527975  0.52408125    -0.73500
O452        O  0.82244689  0.70028236  0.51624152    -0.73900
O453        O  0.86290669  0.70689480  0.54086406    -0.73900
O454        O  0.88488668  0.72383085  0.52242628    -0.73600
C455        C  0.87666748  0.71464418  0.45632393     0.78100
C456        C  0.85718730  0.64410777  0.46600741     0.78600
C457        C  0.92423177  0.67823914  0.49950119     0.77600
C458        C  0.86185088  0.64641763  0.53773776     0.78000
C459        C  0.81564144  0.70492383  0.49908477     0.79100
C460        C  0.87567778  0.72068766  0.53876283     0.78200
Zn461      Zn  0.79469593  0.99246780  0.60996388     1.49700
Zn462      Zn  0.81326797  0.97209940  0.64952438     1.49400
Zn463      Zn  0.83942477  0.99879722  0.61860178     1.49100
Zn464      Zn  0.80732116  0.01825753  0.64793608     1.49500
O465        O  0.81370337  0.99527824  0.63147498    -1.83100
O466        O  0.78095414  0.96643897  0.61279440    -0.73700
O467        O  0.84103486  0.96097938  0.65212371    -0.73600
O468        O  0.83872572  0.99730357  0.58800933    -0.73100
O469        O  0.79630041  0.95066723  0.63758379    -0.73800
O470        O  0.80672479  0.99380535  0.58175950    -0.73400
O471        O  0.85760198  0.97770563  0.62858519    -0.73900
O472        O  0.83029252  0.03692889  0.64940821    -0.73300
O473        O  0.80069346  0.97820605  0.67686078    -0.74100
O474        O  0.85140487  0.02475757  0.62705522    -0.73500
O475        O  0.79742090  0.01089531  0.67535093    -0.73900
O476        O  0.78496538  0.03341444  0.63622862    -0.73900
O477        O  0.77444098  0.01370606  0.61208488    -0.73600
C478        C  0.78363189  0.95112859  0.62360738     0.78100
C479        C  0.85674952  0.96429731  0.64197604     0.78600
C480        C  0.82457590  0.99543374  0.57562348     0.77600
C481        C  0.84647310  0.03789022  0.63969448     0.78000
C482        C  0.79486581  0.99448217  0.68451054     0.79100
C483        C  0.77277329  0.02925243  0.62258552     0.78200
Zn484      Zn  0.78759549  0.98635862  0.35215236     1.49700
Zn485      Zn  0.83178725  0.99230318  0.33764440     1.49400
Zn486      Zn  0.81541552  0.01546763  0.37569151     1.49100
Zn487      Zn  0.82241961  0.97033498  0.38042818     1.49500
O488        O  0.81453266  0.99090929  0.36132804    -1.83100
O489        O  0.78523664  0.98821814  0.32252864    -0.73700
O490        O  0.84895822  0.01702937  0.33899992    -0.73600
O491        O  0.79094127  0.03083617  0.36961829    -0.73100
O492        O  0.81572687  0.99315378  0.31114459    -0.73800
O493        O  0.76901207  0.00737317  0.36208441    -0.73400
O494        O  0.83896949  0.03144507  0.36696063    -0.73900
O495        O  0.82429914  0.97974645  0.40984359    -0.73300
O496        O  0.85109810  0.96902820  0.33916404    -0.74100
O497        O  0.81649498  0.01145952  0.40577091    -0.73500
O498        O  0.84753295  0.95792329  0.37043149    -0.73900
O499        O  0.80256931  0.94819638  0.37953682    -0.73900
O500        O  0.77856088  0.95919384  0.35973059    -0.73600
C501        C  0.79710531  0.99126355  0.30810503     0.78100
C502        C  0.85053508  0.03062990  0.35196630     0.78600
C503        C  0.77326952  0.02531657  0.36600589     0.77600
C504        C  0.82050738  0.99680275  0.41715396     0.78000
C505        C  0.85623288  0.95763085  0.35353425     0.79100
C506        C  0.78624391  0.94568297  0.37051428     0.78200
Zn507      Zn  0.67178552  0.11854708  0.50728444     1.49700
Zn508      Zn  0.67097475  0.12096558  0.46223568     1.49400
Zn509      Zn  0.66913499  0.16194425  0.48657030     1.49100
Zn510      Zn  0.70881896  0.13690588  0.48437695     1.49500
O511        O  0.68025021  0.13499807  0.48513863    -1.83100
O512        O  0.66680253  0.08894571  0.50015332    -0.73700
O513        O  0.64786801  0.13537071  0.45108619    -0.73600
O514        O  0.65134741  0.16315715  0.51073483    -0.73100
O515        O  0.66535581  0.09145447  0.46738401    -0.73800
O516        O  0.64913955  0.13178382  0.52157507    -0.73400
O517        O  0.64999448  0.16587057  0.46373269    -0.73900
O518        O  0.71753322  0.16508563  0.48753345    -0.73300
O519        O  0.69176082  0.12156914  0.44142135    -0.74100
O520        O  0.69077162  0.18424157  0.48772286    -0.73500
O521        O  0.71950846  0.12776651  0.45799467    -0.73900
O522        O  0.72063935  0.12186681  0.50734901    -0.73900
O523        O  0.69377837  0.11771572  0.52629871    -0.73600
C524        C  0.66501321  0.08082681  0.48315086     0.78100
C525        C  0.64213493  0.15336982  0.45198337     0.78600
C526        C  0.64388229  0.14998059  0.52224274     0.77600
C527        C  0.70961570  0.18216554  0.48847530     0.78000
C528        C  0.71050169  0.12327763  0.44205279     0.79100
C529        C  0.71243870  0.11707902  0.52377708     0.78200
Zn530      Zn  0.71059891  0.85858462  0.49318788     1.49700
Zn531      Zn  0.68028622  0.88197768  0.52021600     1.49400
Zn532      Zn  0.67503550  0.88453395  0.47492614     1.49100
Zn533      Zn  0.66631179  0.84244637  0.49724818     1.49500
O534        O  0.68293641  0.86661111  0.49633032    -1.83100
O535        O  0.72751520  0.86849049  0.51566177    -0.73700
O536        O  0.67828897  0.91197337  0.51500785    -0.73600
O537        O  0.69464666  0.88138056  0.45290100    -0.73100
O538        O  0.70395722  0.87692641  0.53726665    -0.73800
O539        O  0.72090449  0.86643583  0.46626339    -0.73400
O540        O  0.67351258  0.91445167  0.48252482    -0.73900
O541        O  0.64759134  0.84309651  0.47304967    -0.73300
O542        O  0.65632454  0.87278664  0.53527806    -0.74100
O543        O  0.64945093  0.87485274  0.46341863    -0.73500
O544        O  0.64811852  0.84391515  0.52163135    -0.73900
O545        O  0.68361451  0.81649768  0.49894518    -0.73900
O546        O  0.71380129  0.82899612  0.49489330    -0.73600
C547        C  0.72195522  0.87290561  0.53318625     0.78100
C548        C  0.67546528  0.92262119  0.49950176     0.78600
C549        C  0.71205879  0.87425755  0.45149660     0.77600
C550        C  0.64148695  0.85769162  0.46240487     0.78000
C551        C  0.64548150  0.85729485  0.53472484     0.79100
C552        C  0.70243611  0.81414738  0.49760434     0.78200
Zn553      Zn  0.62058148  0.00498199  0.15354528     1.49700
Zn554      Zn  0.64956990  0.97695534  0.17930410     1.49400
Zn555      Zn  0.65403218  0.02274223  0.18320537     1.49100
Zn556      Zn  0.61429409  0.00076691  0.19952347     1.49500
O557        O  0.63446175  0.00147212  0.17879377    -1.83100
O558        O  0.62823065  0.98242875  0.13517431    -0.73700
O559        O  0.67698554  0.98037819  0.19098425    -0.73600
O560        O  0.65761530  0.03864007  0.15773746    -0.73100
O561        O  0.65081825  0.96519384  0.15215636    -0.73800
O562        O  0.63086605  0.03014650  0.14026894    -0.73400
O563        O  0.68051299  0.01280309  0.19503776    -0.73900
O564        O  0.61845905  0.02402972  0.21687616    -0.73300
O565        O  0.63663588  0.95709925  0.19730502    -0.74100
O566        O  0.64292764  0.04172221  0.20313096    -0.73500
O567        O  0.61647073  0.97575210  0.21556549    -0.73900
O568        O  0.58556202  0.00254627  0.18928648    -0.73900
O569        O  0.58987134  0.00592892  0.15675589    -0.73600
C570        C  0.64085628  0.96836466  0.13643057     0.78100
C571        C  0.68694515  0.99510868  0.19723307     0.78600
C572        C  0.64619927  0.04099183  0.14281538     0.77600
C573        C  0.62920237  0.03957719  0.21596430     0.78000
C574        C  0.62486557  0.95927865  0.21193026     0.79100
C575        C  0.57835324  0.00468414  0.17189020     0.78200
Zn576      Zn  0.34345056  0.03066569  0.18773479     1.49700
Zn577      Zn  0.37980644  0.01242534  0.21368473     1.49400
Zn578      Zn  0.34881478  0.98545477  0.19016400     1.49100
Zn579      Zn  0.38192135  0.01192000  0.16725901     1.49500
O580        O  0.36381691  0.01012438  0.18982465    -1.83100
O581        O  0.34947863  0.05112320  0.20778805    -0.73700
O582        O  0.37632203  0.98775694  0.23062642    -0.73600
O583        O  0.32049990  0.98907773  0.20088124    -0.73100
O584        O  0.37109569  0.03697363  0.22852385    -0.73800
O585        O  0.31578245  0.02134533  0.19662314    -0.73400
O586        O  0.36066836  0.96732631  0.21006015    -0.73900
O587        O  0.37608956  0.98903245  0.14940083    -0.73300
O588        O  0.40977716  0.01402533  0.20735624    -0.74100
O589        O  0.35104822  0.97207048  0.16325587    -0.73500
O590        O  0.41185599  0.01162979  0.17456346    -0.73900
O591        O  0.37531607  0.03655744  0.15141562    -0.73900
O592        O  0.34467362  0.04482092  0.16088367    -0.73600
C593        C  0.35959463  0.05124563  0.22364922     0.78100
C594        C  0.36983384  0.97058630  0.22618312     0.78600
C595        C  0.30971855  0.00448017  0.20290322     0.77600
C596        C  0.36352461  0.97491451  0.14914578     0.78000
C597        C  0.42023837  0.01287012  0.19151606     0.79100
C598        C  0.35967910  0.04699177  0.14940184     0.78200
Zn599      Zn  0.48652483  0.11494905  0.29421572     1.49700
Zn600      Zn  0.49761846  0.12393577  0.33823354     1.49400
Zn601      Zn  0.51349368  0.15282658  0.30359075     1.49100
Zn602      Zn  0.46910189  0.15468802  0.31536684     1.49500
O603        O  0.49153698  0.13643320  0.31287265    -1.83100
O604        O  0.48886758  0.08696156  0.30655554    -0.73700
O605        O  0.52254030  0.13611144  0.34893096    -0.73600
O606        O  0.52846121  0.13843176  0.28293104    -0.73100
O607        O  0.50070792  0.09340791  0.33650711    -0.73800
O608        O  0.50733293  0.11519442  0.27288548    -0.73400
O609        O  0.53232530  0.15802600  0.32588527    -0.73900
O610        O  0.47392507  0.18174288  0.30145012    -0.73300
O611        O  0.47598976  0.13070941  0.35775432    -0.74100
O612        O  0.50479533  0.17842385  0.29059339    -0.73500
O613        O  0.45922561  0.15585084  0.34408421    -0.73900
O614        O  0.44660496  0.14316909  0.30041972    -0.73900
O615        O  0.45935329  0.11829538  0.28278668    -0.73600
C616        C  0.49590213  0.08094492  0.32311968     0.78100
C617        C  0.53432812  0.14965681  0.34277743     0.78600
C618        C  0.52393109  0.12416527  0.27162055     0.77600
C619        C  0.48861404  0.18808043  0.29114639     0.78000
C620        C  0.46251366  0.14393153  0.35858904     0.79100
C621        C  0.44493779  0.12946035  0.28766269     0.78200
Zn622      Zn  0.49616959  0.86113643  0.28286906     1.49700
Zn623      Zn  0.47471929  0.88172118  0.31895919     1.49400
Zn624      Zn  0.50081721  0.84232792  0.32596566     1.49100
Zn625      Zn  0.52019403  0.88527592  0.31602003     1.49500
O626        O  0.49808349  0.86742021  0.31100246    -1.83100
O627        O  0.47097354  0.87134048  0.27060639    -0.73700
O628        O  0.46281588  0.86916243  0.34318831    -0.73600
O629        O  0.50153480  0.81750917  0.30784794    -0.73100
O630        O  0.45428635  0.87932871  0.29793744    -0.73800
O631        O  0.49542984  0.83174916  0.27870311    -0.73400
O632        O  0.47734343  0.83949373  0.34469155    -0.73900
O633        O  0.53466523  0.87565648  0.34062687    -0.73300
O634        O  0.47954933  0.91147818  0.32219322    -0.74100
O635        O  0.52500027  0.84409088  0.34394636    -0.73500
O636        O  0.51201587  0.91506575  0.31843823    -0.73900
O637        O  0.53890463  0.88245426  0.29297413    -0.73900
O638        O  0.52042445  0.87051755  0.26835644    -0.73600
C639        C  0.45499212  0.87633864  0.27931120     0.78100
C640        C  0.46430909  0.85178522  0.35067099     0.78600
C641        C  0.49811419  0.81622366  0.28922565     0.77600
C642        C  0.53584155  0.85868825  0.34918620     0.78000
C643        C  0.49480590  0.92262656  0.32092364     0.79100
C644        C  0.53678607  0.87708584  0.27496368     0.78200
Zn645      Zn  0.65635604  0.17631136  0.00383357     1.49700
Zn646      Zn  0.61869514  0.18706944  0.97610075     1.49400
Zn647      Zn  0.61329794  0.19142459  0.02133507     1.49100
Zn648      Zn  0.64254894  0.22114407  0.99786293     1.49500
O649        O  0.63294386  0.19383745  0.99996200    -1.83100
O650        O  0.65786491  0.15634229  0.98121642    -0.73700
O651        O  0.58860767  0.18429263  0.97977694    -0.73600
O652        O  0.62101516  0.16803006  0.03815532    -0.73100
O653        O  0.62971701  0.16223612  0.96512852    -0.73800
O654        O  0.65172493  0.15948764  0.02902953    -0.73400
O655        O  0.58409784  0.18803426  0.01214523    -0.73900
O656        O  0.63292665  0.23720679  0.02064248    -0.73300
O657        O  0.62385235  0.20763502  0.95531442    -0.74100
O658        O  0.61516272  0.21559572  0.03855082    -0.73500
O659        O  0.63584399  0.23361746  0.97154692    -0.73900
O660        O  0.67212228  0.22291157  0.99952230    -0.73900
O661        O  0.68305297  0.19221749  0.00420662    -0.73600
C662        C  0.64552055  0.15222672  0.96754949     0.78100
C663        C  0.57704619  0.18518160  0.99480109     0.78600
C664        C  0.63641239  0.15727020  0.04014206     0.77600
C665        C  0.62319944  0.23257399  0.03623744     0.78000
C666        C  0.63001854  0.22547254  0.95561618     0.79100
C667        C  0.68636307  0.21083232  0.00198350     0.78200
Zn668      Zn  0.37762642  0.18402937  0.02428758     1.49700
Zn669      Zn  0.33811915  0.17726670  0.99964972     1.49400
Zn670      Zn  0.36304506  0.21691177  0.99670153     1.49100
Zn671      Zn  0.38189008  0.17833774  0.97875683     1.49500
O672        O  0.36466311  0.18853391  0.99933118    -1.83100
O673        O  0.36418623  0.16230470  0.03941688    -0.73700
O674        O  0.31654505  0.19977110  0.99956547    -0.73600
O675        O  0.38401839  0.22816829  0.01440578    -0.73100
O676        O  0.33483648  0.15985200  0.02461496    -0.73800
O677        O  0.37562924  0.20894817  0.03978021    -0.73400
O678        O  0.33565024  0.22649674  0.00345165    -0.73900
O679        O  0.38209438  0.19776014  0.95602024    -0.73300
O680        O  0.33682982  0.15783269  0.97646019    -0.74100
O681        O  0.36898042  0.22515910  0.96875012    -0.73500
O682        O  0.36871251  0.15367705  0.96786493    -0.73900
O683        O  0.41121839  0.17534721  0.98821888    -0.73900
O684        O  0.40733431  0.17906118  0.02076204    -0.73600
C685        C  0.34687920  0.15480219  0.03835505     0.78100
C686        C  0.31855675  0.21846753  0.00258531     0.78600
C687        C  0.38627171  0.22263763  0.03236717     0.77600
C688        C  0.37655982  0.21575248  0.95429752     0.78000
C689        C  0.35038659  0.14879873  0.96668189     0.79100
C690        C  0.41858465  0.17661728  0.00568328     0.78200
Zn691      Zn  0.52920296  0.31909362  0.14353317     1.49700
Zn692      Zn  0.52041551  0.29651301  0.10210103     1.49400
Zn693      Zn  0.48710462  0.30021045  0.13616224     1.49100
Zn694      Zn  0.50129476  0.33768641  0.10975208     1.49500
O695        O  0.50950951  0.31330512  0.12292283    -1.83100
O696        O  0.55573620  0.30859429  0.13504427    -0.73700
O697        O  0.50658938  0.27045409  0.10216686    -0.73600
O698        O  0.49386091  0.29082756  0.16407874    -0.73100
O699        O  0.54904628  0.29185486  0.10738410    -0.73800
O700        O  0.52274830  0.30529509  0.17017019    -0.73400
O701        O  0.48012404  0.27548860  0.12137144    -0.73900
O702        O  0.47412909  0.34469160  0.11942617    -0.73300
O703        O  0.51674592  0.30749061  0.07367025    -0.74100
O704        O  0.46348355  0.31881051  0.13734011    -0.73500
O705        O  0.50098847  0.33575156  0.07920691    -0.73900
O706        O  0.51924931  0.36001808  0.11811710    -0.73900
O707        O  0.53365336  0.34872473  0.14575612    -0.73600
C708        C  0.56107762  0.29780685  0.12056918     0.78100
C709        C  0.48991309  0.26494899  0.10916265     0.78600
C710        C  0.50849850  0.29394010  0.17555019     0.77600
C711        C  0.46095993  0.33618140  0.13013696     0.78000
C712        C  0.50801221  0.32299829  0.06713659     0.79100
C713        C  0.53033237  0.36260950  0.13317704     0.78200
Zn714      Zn  0.50942997  0.32801713  0.82945082     1.49700
Zn715      Zn  0.51043905  0.28322369  0.84404865     1.49400
Zn716      Zn  0.53414184  0.31624297  0.86801638     1.49100
Zn717      Zn  0.48780107  0.31525956  0.87128728     1.49500
O718        O  0.51023152  0.31076470  0.85313643    -1.83100
O719        O  0.50848031  0.31230183  0.80322383    -0.73700
O720        O  0.53612638  0.26979833  0.85060418    -0.73600
O721        O  0.54705119  0.34148699  0.85840220    -0.73100
O722        O  0.50758137  0.28123815  0.81435699    -0.73800
O723        O  0.53313144  0.34660298  0.82887815    -0.73400
O724        O  0.55372939  0.29453068  0.86334902    -0.73900
O725        O  0.49626770  0.31834349  0.90094096    -0.73300
O726        O  0.48775081  0.26790953  0.85562043    -0.74100
O727        O  0.52901591  0.31739926  0.89790544    -0.73500
O728        O  0.46979352  0.29149025  0.87012889    -0.73900
O729        O  0.47182884  0.33879611  0.86128796    -0.73900
O730        O  0.48542192  0.34583762  0.83171761    -0.73600
C731        C  0.50745034  0.29366791  0.80002237     0.78100
C732        C  0.55231363  0.27677445  0.85717528     0.78600
C733        C  0.54590182  0.35105367  0.84202115     0.77600
C734        C  0.51351560  0.31820727  0.90878875     0.78000
C735        C  0.47206393  0.27366086  0.86434399     0.79100
C736        C  0.47235653  0.34886441  0.84511258     0.78200
Zn737      Zn  0.18138693  0.35162371  0.97674345     1.49700
Zn738      Zn  0.20947802  0.38378155  0.99629327     1.49400
Zn739      Zn  0.16371499  0.38737426  0.00101326     1.49100
Zn740      Zn  0.18621236  0.35031925  0.02144450     1.49500
O741        O  0.18537141  0.36863526  0.99915036    -1.83100
O742        O  0.19554642  0.36356140  0.95387328    -0.73700
O743        O  0.20464968  0.41362622  0.00023161    -0.73600
O744        O  0.14367303  0.38147633  0.97966660    -0.73100
O745        O  0.21972679  0.38084648  0.96823614    -0.73800
O746        O  0.15278930  0.35142608  0.96935421    -0.73400
O747        O  0.17195513  0.41682434  0.00077967    -0.73900
O748        O  0.16084165  0.35267262  0.03788192    -0.73300
O749        O  0.22885757  0.37473227  0.01722457    -0.74100
O750        O  0.14975285  0.38186014  0.02649638    -0.73500
O751        O  0.20886534  0.35821803  0.03810229    -0.73900
O752        O  0.19437466  0.32213134  0.01353780    -0.73900
O753        O  0.19293353  0.32400590  0.98069252    -0.73600
C754        C  0.21114263  0.37410282  0.95283896     0.78100
C755        C  0.18922681  0.42455194  0.00117010     0.78600
C756        C  0.14044760  0.36573979  0.96976784     0.77600
C757        C  0.14887667  0.36736754  0.03869697     0.78000
C758        C  0.22548537  0.36619352  0.03389421     0.79100
C759        C  0.19767794  0.31464134  0.99647644     0.78200
Zn760      Zn  0.16053891  0.62535035  0.00889725     1.49700
Zn761      Zn  0.20666722  0.61599893  0.01033099     1.49400
Zn762      Zn  0.19141749  0.65129650  0.98288311     1.49100
Zn763      Zn  0.19045491  0.65688354  0.02915224     1.49500
O764        O  0.18711270  0.63726364  0.00793334    -1.83100
O765        O  0.16177938  0.59463386  0.00907377    -0.73700
O766        O  0.22472519  0.61544047  0.98661834    -0.73600
O767        O  0.16600816  0.65382551  0.96801111    -0.73100
O768        O  0.19398924  0.58838569  0.01138769    -0.73800
O769        O  0.14483876  0.63450952  0.98476399    -0.73400
O770        O  0.21009947  0.63620775  0.96544952    -0.73900
O771        O  0.20151393  0.68358788  0.01922364    -0.73300
O772        O  0.22299823  0.62012015  0.03470287    -0.74100
O773        O  0.20340784  0.67850931  0.98671766    -0.73500
O774        O  0.21021573  0.64701919  0.04886665    -0.73900
O775        O  0.16514912  0.65961984  0.04488930    -0.73900
O776        O  0.14596717  0.63523183  0.03353019    -0.73600
C777        C  0.17612876  0.58228475  0.01016671     0.78100
C778        C  0.22302508  0.62303857  0.96936266     0.78600
C779        C  0.14898214  0.64596024  0.97010488     0.77600
C780        C  0.20653684  0.68935358  0.00179506     0.78000
C781        C  0.22237667  0.63267311  0.04876355     0.79100
C782        C  0.14937389  0.64922182  0.04579290     0.78200
Zn783      Zn  0.29188495  0.48924174  0.13300167     1.49700
Zn784      Zn  0.32626723  0.46452293  0.11191749     1.49400
Zn785      Zn  0.32887107  0.50906601  0.11290897     1.49100
Zn786      Zn  0.33428271  0.48664048  0.15391543     1.49500
O787        O  0.32019644  0.48702766  0.12842843    -1.83100
O788        O  0.27759960  0.46476166  0.12315888    -0.73700
O789        O  0.32958510  0.47097533  0.08180001    -0.73600
O790        O  0.31018183  0.53104032  0.11716823    -0.73100
O791        O  0.30353734  0.44635470  0.11431851    -0.73800
O792        O  0.28150080  0.51550710  0.12253198    -0.73400
O793        O  0.32935690  0.50377314  0.08329372    -0.73900
O794        O  0.35502691  0.50876061  0.15411136    -0.73300
O795        O  0.34909459  0.44973649  0.12389137    -0.74100
O796        O  0.35515867  0.51805733  0.12222171    -0.73500
O797        O  0.35067261  0.46136161  0.15491951    -0.73900
O798        O  0.31495197  0.48882200  0.17814155    -0.73900
O799        O  0.28625392  0.49010647  0.16222222    -0.73600
C800        C  0.28515645  0.44822083  0.11805339     0.78100
C801        C  0.32965576  0.48791946  0.07313453     0.78600
C802        C  0.29145401  0.53130314  0.11921296     0.77600
C803        C  0.36269360  0.51831648  0.13950450     0.78000
C804        C  0.35608979  0.44917062  0.14149966     0.79100
C805        C  0.29601431  0.49005566  0.17837295     0.78200
Zn806      Zn  0.31410847  0.46915211  0.84057315     1.49700
Zn807      Zn  0.32065727  0.51470799  0.84641717     1.49400
Zn808      Zn  0.29894455  0.48989182  0.88140078     1.49100
Zn809      Zn  0.34473688  0.48384101  0.87372735     1.49500
O810        O  0.31955500  0.48932302  0.86069831    -1.83100
O811        O  0.30405913  0.48101242  0.81441947    -0.73700
O812        O  0.30419195  0.53466081  0.86073433    -0.73600
O813        O  0.27836730  0.46903442  0.87533047    -0.73100
O814        O  0.30879750  0.51329143  0.81860166    -0.73800
O815        O  0.29140855  0.45274257  0.84969602    -0.73400
O816        O  0.28612954  0.51686267  0.88214369    -0.73900
O817        O  0.34189928  0.47959920  0.90379472    -0.73300
O818        O  0.34827527  0.52600357  0.84660910    -0.74100
O819        O  0.30992426  0.48474991  0.90955219    -0.73500
O820        O  0.36330450  0.50678627  0.86904613    -0.73900
O821        O  0.35741605  0.45967208  0.86172759    -0.73900
O822        O  0.33749653  0.45039622  0.83714922    -0.73600
C823        C  0.30221565  0.49889967  0.80835106     0.78100
C824        C  0.29068623  0.53334043  0.87387569     0.78600
C825        C  0.27799517  0.45493181  0.86277079     0.77600
C826        C  0.32732511  0.48084230  0.91586167     0.78000
C827        C  0.36306684  0.52197033  0.85766014     0.79100
C828        C  0.35326637  0.44820144  0.84733478     0.78200
Zn829      Zn  0.98939333  0.63997344  0.21211813     1.49700
Zn830      Zn  0.97535862  0.61675092  0.17290134     1.49400
Zn831      Zn  0.99413572  0.66063372  0.16996060     1.49100
Zn832      Zn  0.01960617  0.62144659  0.18108305     1.49500
O833        O  0.99461364  0.63496204  0.18402827    -1.83100
O834        O  0.96225503  0.62965961  0.21970583    -0.73700
O835        O  0.96411607  0.62850334  0.14804093    -0.73600
O836        O  0.99312180  0.68469952  0.18952536    -0.73100
O837        O  0.95252695  0.61578261  0.19142602    -0.73800
O838        O  0.99021636  0.66924280  0.21863689    -0.73400
O839        O  0.97074010  0.66083547  0.15079080    -0.73900
O840        O  0.03483382  0.63395250  0.15840876    -0.73300
O841        O  0.98483354  0.58774605  0.16923058    -0.74100
O842        O  0.01857043  0.66213056  0.15212298    -0.73500
O843        O  0.01648776  0.59119122  0.17703887    -0.73900
O844        O  0.03487523  0.62555643  0.20603635    -0.73900
O845        O  0.01118222  0.62870013  0.22899413    -0.73600
C846        C  0.94916572  0.62104224  0.20923103     0.78100
C847        C  0.96159254  0.64649120  0.14253320     0.78600
C848        C  0.99186160  0.68521740  0.20853515     0.77600
C849        C  0.03285707  0.65019639  0.14872862     0.78000
C850        C  0.00187387  0.58012527  0.17231022     0.79100
C851        C  0.02932026  0.62671575  0.22411446     0.78200
Zn852      Zn  0.99685301  0.37818074  0.14974692     1.49700
Zn853      Zn  0.01796393  0.35242276  0.18411582     1.49400
Zn854      Zn  0.98877529  0.38817926  0.19453856     1.49100
Zn855      Zn  0.97331702  0.34596066  0.17748381     1.49500
O856        O  0.99410200  0.36644321  0.17635282    -1.83100
O857        O  0.02332658  0.36955994  0.13803780    -0.73700
O858        O  0.03216202  0.36748577  0.20470780    -0.73600
O859        O  0.98954051  0.41584292  0.18137630    -0.73100
O860        O  0.03623994  0.34953266  0.16111192    -0.73800
O861        O  0.99488391  0.40911946  0.14958958    -0.73400
O862        O  0.00960535  0.38894641  0.21555375    -0.73900
O863        O  0.94985767  0.35700846  0.19163533    -0.73300
O864        O  0.01294068  0.32587907  0.19710898    -0.74100
O865        O  0.96202772  0.38363739  0.20694696    -0.73500
O866        O  0.98079727  0.32055132  0.19359817    -0.73900
O867        O  0.96392258  0.34034363  0.14967763    -0.73900
O868        O  0.97559784  0.36625983  0.13226169    -0.73600
C869        C  0.03688775  0.35775222  0.14406083     0.78100
C870        C  0.02659220  0.38081506  0.21669103     0.78600
C871        C  0.99220550  0.42173240  0.16348815     0.77600
C872        C  0.94806625  0.37131169  0.20367569     0.78000
C873        C  0.99763415  0.31537129  0.20050313     0.79100
C874        C  0.96469245  0.35078655  0.13378412     0.78200
Zn875      Zn  0.12141439  0.53061891  0.32821158     1.49700
Zn876      Zn  0.14244508  0.51154967  0.29033983     1.49400
Zn877      Zn  0.16507908  0.51001193  0.33136373     1.49100
Zn878      Zn  0.12489439  0.48539051  0.32506657     1.49500
O879        O  0.13874736  0.50955732  0.31883246    -1.83100
O880        O  0.12106145  0.55217952  0.30760228    -0.73700
O881        O  0.17093400  0.50818802  0.28257304    -0.73600
O882        O  0.16617045  0.53404063  0.34944836    -0.73100
O883        O  0.13398021  0.53830689  0.28056425    -0.73800
O884        O  0.13423749  0.54257274  0.35228176    -0.73400
O885        O  0.18814229  0.50917249  0.31055866    -0.73900
O886        O  0.13906270  0.47044754  0.34596663    -0.73300
O887        O  0.12714355  0.49026226  0.27655615    -0.74100
O888        O  0.16781474  0.48613261  0.34993737    -0.73500
O889        O  0.12373254  0.46846992  0.30133496    -0.73900
O890        O  0.09594920  0.48932591  0.33283398    -0.73900
O891        O  0.09208860  0.52192988  0.33324760    -0.73600
C892        C  0.12620583  0.55301362  0.28937938     0.78100
C893        C  0.18747353  0.50781223  0.29159823     0.78600
C894        C  0.15232726  0.54402187  0.35768411     0.77600
C895        C  0.15593902  0.47197164  0.35416563     0.78000
C896        C  0.12214807  0.47321393  0.28309607     0.79100
C897        C  0.08479287  0.50444753  0.33462243     0.78200
Zn898      Zn  0.84793204  0.50714426  0.33438715     1.49700
Zn899      Zn  0.86209434  0.49161520  0.29341903     1.49400
Zn900      Zn  0.88624464  0.52606916  0.31475732     1.49100
Zn901      Zn  0.88982978  0.48362517  0.33172102     1.49500
O902        O  0.87162006  0.50195114  0.31863892    -1.83100
O903        O  0.82277573  0.50939217  0.31696377    -0.73700
O904        O  0.87146419  0.50907680  0.27090652    -0.73600
O905        O  0.87829484  0.54589558  0.33540034    -0.73100
O906        O  0.83229007  0.49254771  0.29040787    -0.73800
O907        O  0.85180721  0.53235442  0.34996414    -0.73400
O908        O  0.87977591  0.53629202  0.28767718    -0.73900
O909        O  0.91876672  0.49419282  0.33491295    -0.73300
O910        O  0.87096946  0.46363454  0.28996118    -0.74100
O911        O  0.91616098  0.52224191  0.31762758    -0.73500
O912        O  0.89173366  0.45911374  0.31525492    -0.73900
O913        O  0.87660293  0.47368633  0.35686375    -0.73900
O914        O  0.84544790  0.48480998  0.35446867    -0.73600
C915        C  0.81896981  0.50178218  0.30005224     0.78100
C916        C  0.87532494  0.52755245  0.27155204     0.78600
C917        C  0.86475032  0.54611009  0.34861139     0.77600
C918        C  0.92676570  0.50954180  0.32688969     0.78000
C919        C  0.88303299  0.45289561  0.29977310     0.79100
C920        C  0.85845412  0.47359553  0.36247005     0.78200
Zn921      Zn  0.20994503  0.99070289  0.64319526     1.49700
Zn922      Zn  0.16841128  0.99593845  0.66393947     1.49400
Zn923      Zn  0.17748410  0.01769972  0.62276432     1.49100
Zn924      Zn  0.17039526  0.97432045  0.62065366     1.49500
O925        O  0.18181061  0.99425435  0.63804219    -1.83100
O926        O  0.21646069  0.99007674  0.67277033    -0.73700
O927        O  0.14928885  0.01955937  0.66348129    -0.73600
O928        O  0.19986342  0.03560996  0.62788871    -0.73100
O929        O  0.18813237  0.99671785  0.68810501    -0.73800
O930        O  0.22502687  0.01473839  0.63276620    -0.73400
O931        O  0.15264928  0.03043905  0.63225707    -0.73900
O932        O  0.16649240  0.98230929  0.59048103    -0.73300
O933        O  0.15045618  0.97189191  0.66608293    -0.74100
O934        O  0.17640988  0.01344768  0.59261567    -0.73500
O935        O  0.14645558  0.96257505  0.63446324    -0.73900
O936        O  0.18988625  0.95260956  0.61997748    -0.73900
O937        O  0.21849421  0.96445953  0.63151360    -0.73600
C938        C  0.20684247  0.99346426  0.68875128     0.78100
C939        C  0.14369769  0.03053522  0.64897836     0.78600
C940        C  0.21829681  0.03220711  0.62980992     0.77600
C941        C  0.17125170  0.99872516  0.58202045     0.78000
C942        C  0.14190751  0.96136507  0.65292766     0.79100
C943        C  0.20821463  0.95060864  0.62380652     0.78200
Zn944      Zn  0.18354017  0.01732284  0.34965459     1.49700
Zn945      Zn  0.15173344  0.99531824  0.37848438     1.49400
Zn946      Zn  0.18039482  0.97222145  0.34725726     1.49100
Zn947      Zn  0.19739994  0.99165162  0.38787991     1.49500
O948        O  0.17818114  0.99411697  0.36618028    -1.83100
O949        O  0.15950390  0.03435383  0.34783204    -0.73700
O950        O  0.13546961  0.97227966  0.36790906    -0.73600
O951        O  0.19561674  0.97893705  0.32122410    -0.73100
O952        O  0.13791335  0.02079147  0.36919113    -0.73800
O953        O  0.19498531  0.01171148  0.32218694    -0.73400
O954        O  0.15336851  0.96054123  0.34256707    -0.73900
O955        O  0.21086934  0.96518636  0.38530352    -0.73300
O956        O  0.15276621  0.99397086  0.40960615    -0.74100
O957        O  0.19564951  0.95051321  0.35995367    -0.73500
O958        O  0.18493534  0.99266132  0.41612920    -0.73900
O959        O  0.21742202  0.01380144  0.38580432    -0.73900
O960        O  0.20446347  0.03323973  0.36230617    -0.73600
C961        C  0.14281748  0.03435461  0.35669349     0.78100
C962        C  0.13761999  0.96065197  0.35312118     0.78600
C963        C  0.20007971  0.99575861  0.31356346     0.77600
C964        C  0.20774281  0.95014642  0.37432639     0.78000
C965        C  0.16696983  0.99319762  0.42219168     0.79100
C966        C  0.21737812  0.02978387  0.37556493     0.78200
Zn967      Zn  0.27844331  0.13675643  0.49696742     1.49700
Zn968      Zn  0.31325055  0.11856095  0.52138596     1.49400
Zn969      Zn  0.31637564  0.11613712  0.47643045     1.49100
Zn970      Zn  0.31960211  0.15948267  0.49703803     1.49500
O971        O  0.30693655  0.13308458  0.49773865    -1.83100
O972        O  0.26482622  0.12390383  0.52054512    -0.73700
O973        O  0.31727027  0.08886805  0.51700883    -0.73600
O974        O  0.29546637  0.11697365  0.45574187    -0.73100
O975        O  0.29096748  0.12095101  0.54033845    -0.73800
O976        O  0.26795496  0.12777802  0.47062060    -0.73400
O977        O  0.32031326  0.08623885  0.48436774    -0.73900
O978        O  0.33745553  0.16077581  0.47245581    -0.73300
O979        O  0.33657885  0.13086668  0.53413959    -0.74100
O980        O  0.34055746  0.12894752  0.46370776    -0.73500
O981        O  0.33848023  0.16111013  0.52054465    -0.73900
O982        O  0.29920855  0.18310513  0.49835420    -0.73900
O983        O  0.27139785  0.16553096  0.49955335    -0.73600
C984        C  0.27233393  0.12119462  0.53768757     0.78100
C985        C  0.31957461  0.07816177  0.50163410     0.78600
C986        C  0.27710956  0.12133626  0.45538942     0.77600
C987        C  0.34569672  0.14718714  0.46213564     0.78000
C988        C  0.34423712  0.14814027  0.53318631     0.79100
C989        C  0.28029087  0.18216216  0.49988113     0.78200
Zn990      Zn  0.32515818  0.84845484  0.52831085     1.49700
Zn991      Zn  0.30334055  0.88172003  0.50138664     1.49400
Zn992      Zn  0.34937009  0.87996895  0.50234228     1.49100
Zn993      Zn  0.32618332  0.84337215  0.48291971     1.49500
O994        O  0.32584365  0.86364384  0.50366612    -1.83100
O995        O  0.30375204  0.85895863  0.54532904    -0.73700
O996        O  0.31118666  0.91177367  0.50028482    -0.73600
O997        O  0.36486148  0.87663947  0.52738807    -0.73100
O998        O  0.28507862  0.87704089  0.52478137    -0.73800
O999        O  0.35060844  0.85129941  0.54347762    -0.73400
O1000       O  0.34387435  0.90956088  0.49792216    -0.73900
O1001       O  0.35335034  0.84169620  0.46995359    -0.73300
O1002       O  0.28949474  0.87530530  0.47572958    -0.74100
O1003       O  0.36665341  0.87006053  0.48050938    -0.73500
O1004       O  0.30846991  0.85231848  0.46139767    -0.73900
O1005       O  0.31420623  0.81672470  0.49212978    -0.73900
O1006       O  0.31631360  0.81985346  0.52481094    -0.73600
C1007       C  0.28803452  0.86855599  0.54154274     0.78100
C1008       C  0.32815099  0.92004515  0.49815043     0.78600
C1009       C  0.36427202  0.86430463  0.54178909     0.77600
C1010       C  0.36706698  0.85478494  0.46951651     0.78000
C1011       C  0.29401794  0.86431510  0.46100304     0.79100
C1012       C  0.31101864  0.81001353  0.50964122     0.78200
Zn1013     Zn  0.01784413  0.16726549  0.61034337     1.49700
Zn1014     Zn  0.99864808  0.16201719  0.65367245     1.49400
Zn1015     Zn  0.00301996  0.20504841  0.63567957     1.49100
Zn1016     Zn  0.97297230  0.17495448  0.61583151     1.49500
O1017       O  0.99819401  0.17739150  0.62891141    -1.83100
O1018       O  0.03010504  0.14233541  0.62171842    -0.73700
O1019       O  0.99729354  0.17952482  0.67842560    -0.73600
O1020       O  0.02985383  0.21356557  0.62561293    -0.73100
O1021       O  0.02266462  0.14410537  0.65401464    -0.73800
O1022       O  0.03977993  0.18697852  0.60874428    -0.73400
O1023       O  0.00237230  0.20942130  0.66532263    -0.73900
O1024       O  0.95753754  0.19985790  0.61979314    -0.73300
O1025       O  0.97536422  0.14350513  0.65439368    -0.74100
O1026       O  0.98095627  0.22245479  0.62538737    -0.73500
O1027       O  0.95785253  0.15227867  0.62776698    -0.73900
O1028       O  0.97577513  0.17055770  0.58594914    -0.73900
O1029       O  0.00759900  0.16355714  0.58171706    -0.73600
C1030       C  0.03217660  0.13629401  0.63964530     0.78100
C1031       C  0.99931076  0.19823252  0.68036360     0.78600
C1032       C  0.04275970  0.20435795  0.61532289     0.77600
C1033       C  0.96297697  0.21780655  0.62203297     0.78000
C1034       C  0.96056120  0.14127011  0.64299366     0.79100
C1035       C  0.99025980  0.16609192  0.57460315     0.78200
Zn1036     Zn  0.01980500  0.16999930  0.37556120     1.49700
Zn1037     Zn  0.99816208  0.20698265  0.35582954     1.49400
Zn1038     Zn  0.99305111  0.16418680  0.33637291     1.49100
Zn1039     Zn  0.97465924  0.17289092  0.38007151     1.49500
O1040       O  0.99634872  0.17853846  0.36164422    -1.83100
O1041       O  0.04001485  0.19126905  0.37475051    -0.73700
O1042       O  0.99646332  0.21275881  0.32642758    -0.73600
O1043       O  0.01590892  0.14437875  0.33299116    -0.73100
O1044       O  0.02404693  0.21856747  0.36533326    -0.73800
O1045       O  0.03152874  0.14684859  0.36199360    -0.73400
O1046       O  0.99101200  0.18365191  0.31216893    -0.73900
O1047       O  0.95913628  0.14963758  0.37004835    -0.73300
O1048       O  0.97475945  0.22107287  0.36765432    -0.74100
O1049       O  0.96839031  0.14685093  0.33832775    -0.73500
O1050       O  0.95646234  0.19612295  0.37967955    -0.73900
O1051       O  0.98319909  0.16800563  0.40921336    -0.73900
O1052       O  0.01547031  0.16393650  0.40495765    -0.73600
C1053       C  0.03960557  0.20986805  0.37152602     0.78100
C1054       C  0.99306600  0.20253127  0.31097052     0.78600
C1055       C  0.02933413  0.13874104  0.34512054     0.77600
C1056       C  0.95744418  0.14166867  0.35299592     0.78000
C1057       C  0.95872107  0.21436891  0.37514484     0.79100
C1058       C  0.00035334  0.16446190  0.41633354     0.78200
Zn1059     Zn  0.11856994  0.34566679  0.48950170     1.49700
Zn1060     Zn  0.11203199  0.30123016  0.50167106     1.49400
Zn1061     Zn  0.14781405  0.31296605  0.47211934     1.49100
Zn1062     Zn  0.15170855  0.32420614  0.51695557     1.49500
O1063       O  0.13244071  0.32097711  0.49523302    -1.83100
O1064       O  0.08812894  0.34274331  0.48917235    -0.73700
O1065       O  0.11303296  0.27894230  0.48178016    -0.73600
O1066       O  0.14981173  0.33496947  0.45206524    -0.73100
O1067       O  0.08342977  0.31219134  0.50073748    -0.73800
O1068       O  0.12837092  0.35725028  0.46354470    -0.73400
O1069       O  0.13465274  0.29014218  0.45922880    -0.73900
O1070       O  0.17887462  0.31056291  0.51098675    -0.73300
O1071       O  0.11695252  0.29099916  0.52928560    -0.74100
O1072       O  0.17528856  0.30337985  0.47907122    -0.73500
O1073       O  0.14113101  0.31018573  0.54107407    -0.73900
O1074       O  0.15307103  0.35343633  0.52510951    -0.73900
O1075       O  0.12612155  0.36550601  0.51013082    -0.73600
C1076       C  0.07646970  0.32877534  0.49468799     0.78100
C1077       C  0.12184681  0.27750098  0.46506758     0.78600
C1078       C  0.14103745  0.35160003  0.45066775     0.77600
C1079       C  0.18541808  0.30274624  0.49496300     0.78000
C1080       C  0.12805251  0.29678743  0.54341695     0.79100
C1081       C  0.14040809  0.36731144  0.52229757     0.78200
Zn1082     Zn  0.83937994  0.33488195  0.49585897     1.49700
Zn1083     Zn  0.85420120  0.29086309  0.50401936     1.49400
Zn1084     Zn  0.88242251  0.32061470  0.48034568     1.49100
Zn1085     Zn  0.87679827  0.32662318  0.52526709     1.49500
O1086       O  0.86292162  0.31834207  0.50149656    -1.83100
O1087       O  0.81346691  0.31809585  0.49347178    -0.73700
O1088       O  0.86456415  0.27433553  0.48151303    -0.73600
O1089       O  0.87598269  0.34407882  0.46358447    -0.73100
O1090       O  0.82467349  0.28828608  0.50189699    -0.73800
O1091       O  0.84439889  0.35110467  0.47049021    -0.73400
O1092       O  0.87954149  0.29727295  0.46278722    -0.73900
O1093       O  0.90716500  0.32860390  0.52148344    -0.73300
O1094       O  0.86181531  0.27955169  0.53048775    -0.74100
O1095       O  0.91146365  0.32231761  0.48949684    -0.73500
O1096       O  0.87278949  0.30606948  0.54668877    -0.73900
O1097       O  0.86489442  0.35232047  0.53475980    -0.73900
O1098       O  0.83658443  0.35534408  0.51793148    -0.73600
C1099       C  0.81042815  0.29963889  0.49699349     0.78100
C1100       C  0.87284000  0.27978404  0.46535114     0.78600
C1101       C  0.86023020  0.35390088  0.46034081     0.77600
C1102       C  0.91865926  0.32585812  0.50661764     0.78000
C1103       C  0.86797682  0.28778238  0.54626190     0.79100
C1104       C  0.84854328  0.36123958  0.53133134     0.78200
C1105       C  0.01868530  0.32307770  0.50091409     0.19700
C1106       C  0.00618593  0.31579146  0.51615269    -0.18400
C1107       C  0.98538799  0.31716079  0.51471990    -0.10700
C1108       C  0.97639892  0.32556355  0.49775522     0.22000
C1109       C  0.98890309  0.33268339  0.48245398    -0.20000
C1110       C  0.00969267  0.33164820  0.48404759    -0.10800
C1111       C  0.95423175  0.32593453  0.49485327    -0.15000
C1112       C  0.94067186  0.32627770  0.50979753    -0.28900
C1113       C  0.04081187  0.32025355  0.50249308    -0.03100
C1114       C  0.05450490  0.33206845  0.49347238    -0.39700
H1115       H  0.01255412  0.30885678  0.52922186     0.13100
H1116       H  0.97641537  0.31102778  0.52663765     0.12700
H1117       H  0.98253204  0.33899084  0.46906830     0.12200
H1118       H  0.01864610  0.33698031  0.47173587     0.12400
H1119       H  0.94888846  0.32639340  0.47963856     0.15200
H1120       H  0.94578095  0.32698955  0.52505581     0.13900
H1121       H  0.04601357  0.30818891  0.51191917     0.11600
H1122       H  0.04954773  0.34497455  0.48512376     0.13600
C1123       C  0.11289705  0.24751685  0.41833752     0.19700
C1124       C  0.10663808  0.25498069  0.39989630    -0.18400
C1125       C  0.09463856  0.24346413  0.38768338    -0.10700
C1126       C  0.08915356  0.22422246  0.39370025     0.22000
C1127       C  0.09711039  0.21610232  0.41117230    -0.20000
C1128       C  0.10877529  0.22773004  0.42354438    -0.10800
C1129       C  0.07372397  0.21290849  0.38333204    -0.15000
C1130       C  0.05733608  0.22165798  0.37607005    -0.28900
C1131       C  0.12195768  0.26121636  0.43259977    -0.03100
C1132       C  0.11647352  0.26115366  0.45184277    -0.39700
H1133       H  0.10994935  0.27015010  0.39555059     0.13100
H1134       H  0.08909296  0.24982388  0.37396652     0.12700
H1135       H  0.09323460  0.20117658  0.41589841     0.12200
H1136       H  0.11392757  0.22152842  0.43749102     0.12400
H1137       H  0.07431473  0.19682701  0.38467984     0.15200
H1138       H  0.05611172  0.23772780  0.37552342     0.13900
H1139       H  0.13093909  0.27331278  0.42667931     0.11600
H1140       H  0.10620173  0.24999590  0.45747288     0.13600
C1141       C  0.90826184  0.23459585  0.39026310     0.19700
C1142       C  0.89417241  0.22603602  0.40308326    -0.18400
C1143       C  0.88253633  0.23804160  0.41520721    -0.10700
C1144       C  0.88489965  0.25875814  0.41451144     0.22000
C1145       C  0.89693966  0.26729988  0.39972307    -0.20000
C1146       C  0.90859710  0.25530327  0.38764095    -0.10800
C1147       C  0.87733309  0.27174615  0.43033519    -0.15000
C1148       C  0.87500718  0.26546521  0.44922128    -0.28900
C1149       C  0.92383778  0.22172460  0.38197394    -0.03100
C1150       C  0.94246342  0.22822350  0.37896482    -0.39700
H1151       H  0.89327864  0.21006512  0.40488434     0.13100
H1152       H  0.87259276  0.23104699  0.42580761     0.12700
H1153       H  0.89853269  0.28327187  0.39856166     0.12200
H1154       H  0.91859167  0.26230862  0.37709340     0.12400
H1155       H  0.87649041  0.28755659  0.42704738     0.15200
H1156       H  0.87588221  0.24985457  0.45318388     0.13900
H1157       H  0.92065604  0.20594707  0.38090424     0.11600
H1158       H  0.94620577  0.24381416  0.38031534     0.13600
C1159       C  0.11135157  0.26080895  0.58348836     0.19700
C1160       C  0.11365324  0.24054783  0.58747739    -0.18400
C1161       C  0.10088980  0.23096094  0.60073128    -0.10700
C1162       C  0.08516336  0.24145399  0.60954240     0.22000
C1163       C  0.08437786  0.26213230  0.60741663    -0.20000
C1164       C  0.09740823  0.27181496  0.59440959    -0.10800
C1165       C  0.06781392  0.23098259  0.61804315    -0.15000
C1166       C  0.06167072  0.21377656  0.61022350    -0.28900
C1167       C  0.12036384  0.26906628  0.56528760    -0.03100
C1168       C  0.12505189  0.28823846  0.56323888    -0.39700
H1169       H  0.12446567  0.23189305  0.57934119     0.13100
H1170       H  0.10244395  0.21510259  0.60289086     0.12700
H1171       H  0.07253140  0.27051906  0.61428812     0.12200
H1172       H  0.09521206  0.28747413  0.59147323     0.12400
H1173       H  0.05855709  0.23862837  0.62879903     0.15200
H1174       H  0.07036085  0.20654137  0.59875628     0.13900
H1175       H  0.12155463  0.25932649  0.55250942     0.11600
H1176       H  0.12551528  0.29796097  0.57604068     0.13600
C1177       C  0.88724405  0.26994131  0.59619766     0.19700
C1178       C  0.90365141  0.27754597  0.60634915    -0.18400
C1179       C  0.91660700  0.26475628  0.61621582    -0.10700
C1180       C  0.91321707  0.24416623  0.61604100     0.22000
C1181       C  0.89538615  0.23694169  0.60826805    -0.20000
C1182       C  0.88243230  0.24973008  0.59840724    -0.10800
C1183       C  0.92863364  0.22967647  0.62176267    -0.15000
C1184       C  0.94814133  0.23364972  0.62034592    -0.28900
C1185       C  0.87756662  0.28275608  0.58119018    -0.03100
C1186       C  0.87071464  0.27532595  0.56404158    -0.39700
H1187       H  0.90735615  0.29317839  0.60528949     0.13100
H1188       H  0.92970569  0.27093630  0.62302277     0.12700
H1189       H  0.89216728  0.22117774  0.60851416     0.12200
H1190       H  0.86933054  0.24356690  0.59158069     0.12400
H1191       H  0.92385960  0.21453710  0.62487587     0.15200
H1192       H  0.95344603  0.24850701  0.61695404     0.13900
H1193       H  0.87945181  0.29872046  0.58257187     0.11600
H1194       H  0.86946567  0.25940914  0.56200278     0.13600
C1195       C  0.99240133  0.16197245  0.47431155     0.19700
C1196       C  0.97641454  0.16616923  0.48710972    -0.18400
C1197       C  0.97864034  0.16594174  0.50788727    -0.10700
C1198       C  0.99705072  0.16138249  0.51667915     0.22000
C1199       C  0.01298117  0.15689207  0.50389625    -0.20000
C1200       C  0.01075078  0.15711592  0.48309987    -0.10800
C1201       C  0.00060277  0.16179242  0.53883117    -0.15000
C1202       C  0.98633409  0.16428358  0.55282753    -0.28900
C1203       C  0.98918087  0.16335431  0.45213061    -0.03100
C1204       C  0.00349863  0.16130716  0.43812863    -0.39700
H1205       H  0.96207546  0.16997218  0.48098321     0.13100
H1206       H  0.96587557  0.16973401  0.51680127     0.12700
H1207       H  0.02736221  0.15330519  0.51003211     0.12200
H1208       H  0.02357001  0.15356741  0.47416229     0.12400
H1209       H  0.01581665  0.16024990  0.54381738     0.15200
H1210       H  0.97099032  0.16566766  0.54840929     0.13900
H1211       H  0.97430440  0.16694072  0.44711250     0.11600
H1212       H  0.01855905  0.15803255  0.44257022     0.13600
C1213       C  0.22830048  0.26594811  0.50717783     0.19700
C1214       C  0.22873335  0.24945719  0.52010511    -0.18400
C1215       C  0.24302560  0.23448283  0.51795798    -0.10700
C1216       C  0.25756162  0.23558946  0.50287500     0.22000
C1217       C  0.25779923  0.25256549  0.49054505    -0.20000
C1218       C  0.24328244  0.26748150  0.49252727    -0.10800
C1219       C  0.27235699  0.21914512  0.49976898    -0.15000
C1220       C  0.26742744  0.19992883  0.50289907    -0.28900
C1221       C  0.21177804  0.28081013  0.50934384    -0.03100
C1222       C  0.20473490  0.29196250  0.49415825    -0.39700
H1223       H  0.21764379  0.24789834  0.53170594     0.13100
H1224       H  0.24267463  0.22203008  0.52821922     0.12700
H1225       H  0.26895240  0.25405739  0.47900504     0.12200
H1226       H  0.24388077  0.28017053  0.48259029     0.12400
H1227       H  0.28688528  0.22274828  0.49374300     0.15200
H1228       H  0.25227716  0.19660978  0.50733557     0.13900
H1229       H  0.20361280  0.28084927  0.52330470     0.11600
H1230       H  0.21160340  0.29067748  0.47961389     0.13600
C1231       C  0.31915043  0.97785640  0.49835517     0.19700
C1232       C  0.30943437  0.99078178  0.51153913    -0.18400
C1233       C  0.31096257  0.01156078  0.50939154    -0.10700
C1234       C  0.32203295  0.02017821  0.49370016     0.22000
C1235       C  0.33154348  0.00723309  0.48035079    -0.20000
C1236       C  0.33030883  0.98642917  0.48271981    -0.10800
C1237       C  0.32287816  0.04238559  0.49013916    -0.15000
C1238       C  0.32052979  0.05604675  0.50466670    -0.28900
C1239       C  0.31646633  0.95568392  0.50073917    -0.03100
C1240       C  0.33026748  0.94210566  0.49540140    -0.39700
H1241       H  0.30051818  0.98475909  0.52358364     0.13100
H1242       H  0.30289483  0.02079270  0.51971562     0.12700
H1243       H  0.33994680  0.01325382  0.46793885     0.12200
H1244       H  0.33764239  0.97710132  0.47193576     0.12400
H1245       H  0.32566672  0.04759842  0.47505946     0.15200
H1246       H  0.31875164  0.05084940  0.51988377     0.13900
H1247       H  0.30303800  0.95044364  0.50805296     0.11600
H1248       H  0.34435056  0.94736553  0.48951967     0.13600
C1249       C  0.24363441  0.07925633  0.37933876     0.19700
C1250       C  0.23470036  0.09650902  0.38659931    -0.18400
C1251       C  0.24547030  0.10930966  0.39864794    -0.10700
C1252       C  0.26531768  0.10499839  0.40316352     0.22000
C1253       C  0.27484753  0.08918108  0.39371022    -0.20000
C1254       C  0.26399925  0.07620105  0.38199671    -0.10800
C1255       C  0.27555454  0.11447925  0.41981224    -0.15000
C1256       C  0.26606069  0.11824317  0.43697005    -0.28900
C1257       C  0.23096958  0.06332959  0.37183224    -0.03100
C1258       C  0.23242576  0.04490042  0.37948764    -0.39700
H1259       H  0.21902188  0.09913896  0.38441508     0.13100
H1260       H  0.23800595  0.12180823  0.40536948     0.12700
H1261       H  0.29022687  0.08580998  0.39685114     0.12200
H1262       H  0.27116312  0.06310461  0.37611229     0.12400
H1263       H  0.29166582  0.11490859  0.41929398     0.15200
H1264       H  0.25001354  0.11728231  0.43797600     0.13900
H1265       H  0.21850034  0.06737858  0.36248303     0.11600
H1266       H  0.24397636  0.04136556  0.39014774     0.13600
C1267       C  0.24259280  0.91310610  0.39786020     0.19700
C1268       C  0.26307010  0.91077106  0.39971184    -0.18400
C1269       C  0.27063346  0.89652691  0.41267108    -0.10700
C1270       C  0.25770632  0.88478209  0.42428619     0.22000
C1271       C  0.23724539  0.88626069  0.42150010    -0.20000
C1272       C  0.22968721  0.90020241  0.40816881    -0.10800
C1273       C  0.26515464  0.87443432  0.44199877    -0.15000
C1274       C  0.28327260  0.86655560  0.44235655    -0.28900
C1275       C  0.23498955  0.93113355  0.38823431    -0.03100
C1276       C  0.21757539  0.93140956  0.37893337    -0.39700
H1277       H  0.27316961  0.92075997  0.39203969     0.13100
H1278       H  0.28650441  0.89604868  0.41490723     0.12700
H1279       H  0.22711532  0.87753730  0.43055899     0.12200
H1280       H  0.21377281  0.90203283  0.40730862     0.12400
H1281       H  0.25667403  0.87578422  0.45570669     0.15200
H1282       H  0.29128294  0.86387172  0.42858857     0.13900
H1283       H  0.24328103  0.94484292  0.39010348     0.11600
H1284       H  0.20990372  0.91765401  0.37557596     0.13600
C1285       C  0.07288400  0.10233632  0.34863648     0.19700
C1286       C  0.09296473  0.10462063  0.35336308    -0.18400
C1287       C  0.10519927  0.08810031  0.35557853    -0.10700
C1288       C  0.09753548  0.06883825  0.35328616     0.22000
C1289       C  0.07746372  0.06650163  0.34842373    -0.20000
C1290       C  0.06523026  0.08312288  0.34592822    -0.10800
C1291       C  0.11007587  0.05111947  0.35695204    -0.15000
C1292       C  0.12946967  0.05110552  0.35242715    -0.28900
C1293       C  0.05998866  0.12004623  0.34956883    -0.03100
C1294       C  0.04258494  0.12208105  0.34005240    -0.39700
H1295       H  0.09909253  0.11925407  0.35590543     0.13100
H1296       H  0.12045459  0.09043529  0.35988625     0.12700
H1297       H  0.07120637  0.05178828  0.34679567     0.12200
H1298       H  0.04966522  0.08086167  0.34285099     0.12400
H1299       H  0.10318963  0.03779236  0.36304423     0.15200
H1300       H  0.13593428  0.06386339  0.34482567     0.13900
H1301       H  0.06495438  0.13193704  0.35920871     0.11600
H1302       H  0.03781547  0.11125962  0.32918750     0.13600
C1303       C  0.25590059  0.10864226  0.59029255     0.19700
C1304       C  0.26664613  0.09729823  0.60407882    -0.18400
C1305       C  0.25675464  0.08482731  0.61743454    -0.10700
C1306       C  0.23599108  0.08388608  0.61726905     0.22000
C1307       C  0.22526992  0.09705839  0.60518854    -0.20000
C1308       C  0.23515585  0.10930256  0.59162599    -0.10800
C1309       C  0.22509062  0.06768400  0.62716415    -0.15000
C1310       C  0.23203469  0.04896174  0.62747487    -0.28900
C1311       C  0.26670012  0.11755875  0.57342644    -0.03100
C1312       C  0.25932155  0.11762382  0.55487238    -0.39700
H1313       H  0.28269441  0.09691263  0.60348335     0.13100
H1314       H  0.26531438  0.07522091  0.62709170     0.12700
H1315       H  0.20921234  0.09674011  0.60511278     0.12200
H1316       H  0.22657699  0.11848486  0.58158841     0.12400
H1317       H  0.20958583  0.07041294  0.63066836     0.15200
H1318       H  0.24732501  0.04573337  0.62358180     0.13900
H1319       H  0.28221178  0.12123574  0.57575537     0.11600
H1320       H  0.24404403  0.11344829  0.55208994     0.13600
C1321       C  0.24122587  0.88207888  0.57061331     0.19700
C1322       C  0.22182729  0.88760512  0.56566319    -0.18400
C1323       C  0.20991626  0.89727496  0.57950818    -0.10700
C1324       C  0.21743501  0.90176331  0.59832317     0.22000
C1325       C  0.23585009  0.89418957  0.60410535    -0.20000
C1326       C  0.24773078  0.88447283  0.59034987    -0.10800
C1327       C  0.20745480  0.91710760  0.61003325    -0.15000
C1328       C  0.21787415  0.93198659  0.61824415    -0.28900
C1329       C  0.25501536  0.87695747  0.55430834    -0.03100
C1330       C  0.27327589  0.86989381  0.55744183    -0.39700
H1331       H  0.21639600  0.88573704  0.55064897     0.13100
H1332       H  0.19559052  0.90287172  0.57490243     0.12700
H1333       H  0.24165984  0.89706920  0.61879393     0.12200
H1334       H  0.26249173  0.88047363  0.59502283     0.12400
H1335       H  0.19145377  0.91827624  0.60863226     0.15200
H1336       H  0.23395325  0.93144121  0.61881662     0.13900
H1337       H  0.25046315  0.88048083  0.53917539     0.11600
H1338       H  0.27789806  0.86496779  0.57209660     0.13600
C1339       C  0.06948003  0.09342613  0.63262903     0.19700
C1340       C  0.07990347  0.09072961  0.65056792    -0.18400
C1341       C  0.09496528  0.07648202  0.65198161    -0.10700
C1342       C  0.09988300  0.06474688  0.63547742     0.22000
C1343       C  0.08911192  0.06715132  0.61783936    -0.20000
C1344       C  0.07410936  0.08127899  0.61644150    -0.10800
C1345       C  0.11712856  0.05112697  0.63518440    -0.15000
C1346       C  0.12624488  0.04357333  0.65133962    -0.28900
C1347       C  0.05478375  0.10953682  0.62946247    -0.03100
C1348       C  0.04602595  0.11989824  0.64406895    -0.39700
H1349       H  0.07713580  0.10005565  0.66327456     0.13100
H1350       H  0.10323286  0.07536108  0.66568095     0.12700
H1351       H  0.09262882  0.05835320  0.60487763     0.12200
H1352       H  0.06638279  0.08303256  0.60244716     0.12400
H1353       H  0.12251748  0.04688985  0.62055716     0.15200
H1354       H  0.12060161  0.04635231  0.66618490     0.13900
H1355       H  0.05093513  0.11299982  0.61413776     0.11600
H1356       H  0.04873162  0.11627542  0.65955754     0.13600
C1357       C  0.17185550  0.99425306  0.48102371     0.19700
C1358       C  0.18508409  0.00370731  0.49410700    -0.18400
C1359       C  0.18277282  0.00235243  0.51494923    -0.10700
C1360       C  0.16724565  0.99116402  0.52360603     0.22000
C1361       C  0.15406066  0.98158721  0.51053379    -0.20000
C1362       C  0.15617273  0.98323915  0.48962890    -0.10800
C1363       C  0.16520223  0.98820274  0.54597170    -0.15000
C1364       C  0.17181734  0.00135386  0.55968856    -0.28900
C1365       C  0.17587375  0.99515954  0.45878817    -0.03100
C1366       C  0.16220866  0.99251308  0.44418613    -0.39700
H1367       H  0.19748426  0.01210900  0.48815314     0.13100
H1368       H  0.19362407  0.00957597  0.52422191     0.12700
H1369       H  0.14206894  0.97264034  0.51653847     0.12200
H1370       H  0.14586183  0.97534031  0.48028431     0.12400
H1371       H  0.15771193  0.97487031  0.55124642     0.15200
H1372       H  0.17822691  0.01520190  0.55435419     0.13900
H1373       H  0.19094076  0.99872665  0.45424692     0.11600
H1374       H  0.14684179  0.99008035  0.44836286     0.13600
C1375       C  0.84866282  0.39608229  0.42328962     0.19700
C1376       C  0.83853782  0.41419958  0.42470737    -0.18400
C1377       C  0.84260117  0.42969177  0.41126874    -0.10700
C1378       C  0.85676349  0.42714498  0.39606472     0.22000
C1379       C  0.86607269  0.40868106  0.39410483    -0.20000
C1380       C  0.86192670  0.39325016  0.40737307    -0.10800
C1381       C  0.86298844  0.44333815  0.38235561    -0.15000
C1382       C  0.85203297  0.45945049  0.37806869    -0.28900
C1383       C  0.84605805  0.38072755  0.43905144    -0.03100
C1384       C  0.86111446  0.36875283  0.44424011    -0.39700
H1385       H  0.82811984  0.41665786  0.43673419     0.13100
H1386       H  0.83522569  0.44376702  0.41334516     0.12700
H1387       H  0.87678234  0.40621854  0.38232769     0.12200
H1388       H  0.86935060  0.37919879  0.40524060     0.12400
H1389       H  0.87692724  0.44124117  0.37445411     0.15200
H1390       H  0.83742361  0.46134867  0.38459717     0.13900
H1391       H  0.83222724  0.38019962  0.44737229     0.11600
H1392       H  0.87534238  0.37024636  0.43677574     0.13600
C1393       C  0.15319811  0.42483743  0.38604712     0.19700
C1394       C  0.14776240  0.40513187  0.38228203    -0.18400
C1395       C  0.14527577  0.39161542  0.39789015    -0.10700
C1396       C  0.14802629  0.39766175  0.41762904     0.22000
C1397       C  0.15385885  0.41725537  0.42140296    -0.20000
C1398       C  0.15657721  0.43074412  0.40574407    -0.10800
C1399       C  0.14345165  0.38428756  0.43454823    -0.15000
C1400       C  0.14585816  0.36454511  0.43365992    -0.28900
C1401       C  0.15220961  0.43931459  0.36949691    -0.03100
C1402       C  0.16138568  0.45704300  0.36926057    -0.39700
H1403       H  0.14474923  0.40036071  0.36724703     0.13100
H1404       H  0.14028224  0.37675281  0.39451276     0.12700
H1405       H  0.15586974  0.42224212  0.43653727     0.12200
H1406       H  0.16022551  0.44596613  0.40921080     0.12400
H1407       H  0.13852284  0.39096538  0.44837752     0.15200
H1408       H  0.15245754  0.35781338  0.42059961     0.13900
H1409       H  0.14258469  0.43546818  0.35717243     0.11600
H1410       H  0.17224572  0.46085454  0.38046195     0.13600
C1411       C  0.98436535  0.50483163  0.33625765     0.19700
C1412       C  0.99749065  0.48899876  0.33997399    -0.18400
C1413       C  0.01819858  0.49185196  0.34012629    -0.10700
C1414       C  0.02658475  0.51080679  0.33666402     0.22000
C1415       C  0.01340568  0.52670232  0.33340903    -0.20000
C1416       C  0.99271785  0.52383907  0.33323692    -0.10800
C1417       C  0.04870685  0.51478892  0.33583000    -0.15000
C1418       C  0.06304697  0.50081930  0.33777425    -0.28900
C1419       C  0.96225702  0.50089281  0.33595215    -0.03100
C1420       C  0.94865641  0.51340434  0.32795982    -0.39700
H1421       H  0.99169642  0.47420051  0.34257033     0.13100
H1422       H  0.02739201  0.47903149  0.34287520     0.12700
H1423       H  0.01915555  0.54152699  0.33085624     0.12200
H1424       H  0.98342326  0.53668660  0.33089722     0.12400
H1425       H  0.05337993  0.52993105  0.33267366     0.15200
H1426       H  0.05888708  0.48552120  0.34052692     0.13900
H1427       H  0.95707965  0.48678140  0.34193324     0.11600
H1428       H  0.95365471  0.52715858  0.32113890     0.13600
C1429       C  0.05448013  0.41359137  0.25218280     0.19700
C1430       C  0.05645864  0.43419464  0.25065178    -0.18400
C1431       C  0.07316440  0.44350711  0.25817685    -0.10700
C1432       C  0.08805496  0.43229699  0.26754003     0.22000
C1433       C  0.08559284  0.41179453  0.27000744    -0.20000
C1434       C  0.06895282  0.40241684  0.26222723    -0.10800
C1435       C  0.10499146  0.44216883  0.27685505    -0.15000
C1436       C  0.11234176  0.45933601  0.26974612    -0.28900
C1437       C  0.03796415  0.40413688  0.24176706    -0.03100
C1438       C  0.04076251  0.38738701  0.23160180    -0.39700
H1439       H  0.04533077  0.44302724  0.24310524     0.13100
H1440       H  0.07420135  0.45950547  0.25697112     0.12700
H1441       H  0.09661466  0.40306034  0.27780479     0.12200
H1442       H  0.06743462  0.38650027  0.26399673     0.12400
H1443       H  0.10988046  0.43634064  0.29112856     0.15200
H1444       H  0.10826207  0.46466957  0.25503458     0.13900
H1445       H  0.02442627  0.41264608  0.23972671     0.11600
H1446       H  0.05486091  0.37963547  0.23235649     0.13600
C1447       C  0.88599379  0.40705364  0.26759825     0.19700
C1448       C  0.88395310  0.40665232  0.24689822    -0.18400
C1449       C  0.89686717  0.39527800  0.23547509    -0.10700
C1450       C  0.91180577  0.38406756  0.24478228     0.22000
C1451       C  0.91201251  0.38243180  0.26553862    -0.20000
C1452       C  0.89898769  0.39365846  0.27693314    -0.10800
C1453       C  0.92940299  0.37744212  0.23370519    -0.15000
C1454       C  0.92930067  0.37364445  0.21424053    -0.28900
C1455       C  0.87750545  0.42401860  0.27837597    -0.03100
C1456       C  0.88778463  0.43292411  0.29285992    -0.39700
H1457       H  0.87383592  0.41670701  0.23945138     0.13100
H1458       H  0.89636455  0.39693763  0.21947746     0.12700
H1459       H  0.92323177  0.37362163  0.27295837     0.12200
H1460       H  0.90022163  0.39303476  0.29296504     0.12400
H1461       H  0.94340086  0.37692484  0.24167685     0.15200
H1462       H  0.91553628  0.37223048  0.20607439     0.13900
H1463       H  0.86458626  0.43134501  0.27210158     0.11600
H1464       H  0.90114807  0.42621109  0.29880286     0.13600
C1465       C  0.99430290  0.24468167  0.27064293     0.19700
C1466       C  0.00709605  0.26095519  0.26787981    -0.18400
C1467       C  0.00466408  0.27420317  0.25191464    -0.10700
C1468       C  0.98913532  0.27176009  0.23821126     0.22000
C1469       C  0.97618926  0.25553479  0.24100716    -0.20000
C1470       C  0.97884474  0.24200744  0.25690234    -0.10800
C1471       C  0.98545966  0.28680311  0.22197969    -0.15000
C1472       C  0.00024435  0.29762615  0.21364107    -0.28900
C1473       C  0.99655113  0.23231206  0.28912252    -0.03100
C1474       C  0.99104349  0.21306615  0.29139563    -0.39700
H1475       H  0.01891401  0.26365155  0.27837370     0.13100
H1476       H  0.01456463  0.28681386  0.25085331     0.12700
H1477       H  0.96389290  0.25341029  0.23095032     0.12200
H1478       H  0.96837892  0.22994911  0.25882416     0.12400
H1479       H  0.97029013  0.28941051  0.21730759     0.15200
H1480       H  0.01541078  0.29430763  0.21783274     0.13900
H1481       H  0.00364135  0.23957426  0.30159528     0.11600
H1482       H  0.98500977  0.20500102  0.27888704     0.13600
C1483       C  0.10583717  0.60341964  0.27452856     0.19700
C1484       C  0.08923670  0.61275322  0.28281886    -0.18400
C1485       C  0.07596759  0.62290389  0.27061739    -0.10700
C1486       C  0.07928913  0.62382110  0.24999261     0.22000
C1487       C  0.09734180  0.61705854  0.24223787    -0.20000
C1488       C  0.11059205  0.60688267  0.25443219    -0.10800
C1489       C  0.06346064  0.62920508  0.23592579    -0.15000
C1490       C  0.04424660  0.62548350  0.23981890    -0.28900
C1491       C  0.11575481  0.58781737  0.28631540    -0.03100
C1492       C  0.12232292  0.57108676  0.27777852    -0.39700
H1493       H  0.08559294  0.61070544  0.29840796     0.13100
H1494       H  0.06260971  0.62891673  0.27716775     0.12700
H1495       H  0.10044533  0.61815574  0.22644978     0.12200
H1496       H  0.12383467  0.60065453  0.24784277     0.12400
H1497       H  0.06787452  0.63376176  0.22100558     0.15200
H1498       H  0.03938077  0.62059442  0.25445546     0.13900
H1499       H  0.11446679  0.58848439  0.30241597     0.11600
H1500       H  0.12304922  0.56981423  0.26171722     0.13600
C1501       C  0.89787456  0.59903597  0.21611270     0.19700
C1502       C  0.89170143  0.58094214  0.20805214    -0.18400
C1503       C  0.88013412  0.56793079  0.21940145    -0.10700
C1504       C  0.87457421  0.57311179  0.23883510     0.22000
C1505       C  0.87815072  0.59244450  0.24551799    -0.20000
C1506       C  0.88987982  0.60534513  0.23427036    -0.10800
C1507       C  0.86846873  0.55817244  0.25374420    -0.15000
C1508       C  0.87487469  0.53931309  0.25320823    -0.28900
C1509       C  0.91490296  0.60922781  0.20690760    -0.03100
C1510       C  0.92975405  0.61646345  0.21803989    -0.39700
H1511       H  0.89737196  0.57606792  0.19381058     0.13100
H1512       H  0.87680069  0.55341605  0.21350435     0.12700
H1513       H  0.87357843  0.59689585  0.26028761     0.12200
H1514       H  0.89387525  0.61960454  0.24041093     0.12400
H1515       H  0.86187086  0.56361282  0.26745306     0.15200
H1516       H  0.88154317  0.53303271  0.23998210     0.13900
H1517       H  0.91691638  0.60762878  0.19095336     0.11600
H1518       H  0.92827828  0.61742806  0.23408876     0.13600
C1519       C  0.99573105  0.47990751  0.16878736     0.19700
C1520       C  0.00711602  0.49214031  0.18124019    -0.18400
C1521       C  0.00642286  0.51298987  0.17964955    -0.10700
C1522       C  0.99398992  0.52242315  0.16570404     0.22000
C1523       C  0.98263619  0.51018606  0.15315609    -0.20000
C1524       C  0.98362402  0.48926002  0.15450217    -0.10800
C1525       C  0.99134735  0.54473503  0.16498918    -0.15000
C1526       C  0.00506043  0.55805531  0.17127832    -0.28900
C1527       C  0.99563261  0.45775599  0.17248179    -0.03100
C1528       C  0.99207295  0.44359795  0.15865835    -0.39700
H1529       H  0.01642710  0.48550422  0.19256027     0.13100
H1530       H  0.01506005  0.52163874  0.18996715     0.12700
H1531       H  0.97272267  0.51686114  0.14239769     0.12200
H1532       H  0.97431827  0.48047795  0.14489308     0.12400
H1533       H  0.97749457  0.55036979  0.15901927     0.15200
H1534       H  0.01937415  0.55264435  0.17622752     0.13900
H1535       H  0.99940267  0.45284178  0.18742351     0.11600
H1536       H  0.98973685  0.44803217  0.14330047     0.13600
C1537       C  0.25072739  0.49503315  0.21462240     0.19700
C1538       C  0.25642734  0.49737084  0.23465317    -0.18400
C1539       C  0.24194969  0.50010089  0.24971100    -0.10700
C1540       C  0.22158362  0.50056081  0.24493131     0.22000
C1541       C  0.21620404  0.49811479  0.22496823    -0.20000
C1542       C  0.23042561  0.49539736  0.21018088    -0.10800
C1543       C  0.20497023  0.50356159  0.25949946    -0.15000
C1544       C  0.20605087  0.50552466  0.27950925    -0.28900
C1545       C  0.26466406  0.49252595  0.19738773    -0.03100
C1546       C  0.28474392  0.49173142  0.19755344    -0.39700
H1547       H  0.27191243  0.49721229  0.23872385     0.13100
H1548       H  0.24674841  0.50193666  0.26490526     0.12700
H1549       H  0.20075458  0.49834089  0.22064741     0.12200
H1550       H  0.22539766  0.49366332  0.19501072     0.12400
H1551       H  0.19029595  0.50397696  0.25291801     0.15200
H1552       H  0.22024246  0.50514026  0.28700348     0.13900
H1553       H  0.25746009  0.49143724  0.18301569     0.11600
H1554       H  0.29283823  0.49257978  0.21141875     0.13600
C1555       C  0.32239079  0.48139683  0.97391206     0.19700
C1556       C  0.31320158  0.49460202  0.98715217    -0.18400
C1557       C  0.31593710  0.49287517  0.00778792    -0.10700
C1558       C  0.32777576  0.47763945  0.01589936     0.22000
C1559       C  0.33670753  0.46419364  0.00269238    -0.20000
C1560       C  0.33423113  0.46612629  0.98197533    -0.10800
C1561       C  0.33004510  0.47481844  0.03799560    -0.15000
C1562       C  0.32925223  0.49000770  0.05100292    -0.28900
C1563       C  0.31845971  0.48353177  0.95200899    -0.03100
C1564       C  0.33109528  0.47763329  0.93754707    -0.39700
H1565       H  0.30378321  0.50634659  0.98149205     0.13100
H1566       H  0.30825940  0.50317960  0.01736680     0.12700
H1567       H  0.34564828  0.45211822  0.00843489     0.12200
H1568       H  0.34117124  0.45533029  0.97237966     0.12400
H1569       H  0.33261508  0.45989020  0.04363192     0.15200
H1570       H  0.32784448  0.50503061  0.04522677     0.13900
H1571       H  0.30501743  0.49125862  0.94764403     0.11600
H1572       H  0.34524428  0.47119133  0.94166150     0.13600
C1573       C  0.28266154  0.58514491  0.10590580     0.19700
C1574       C  0.29354531  0.59518107  0.09115247    -0.18400
C1575       C  0.28405010  0.60836571  0.07830878    -0.10700
C1576       C  0.26375002  0.61207026  0.08050368     0.22000
C1577       C  0.25342214  0.60377004  0.09678150    -0.20000
C1578       C  0.26284209  0.59031693  0.10939562    -0.10800
C1579       C  0.25296968  0.62093224  0.06368212    -0.15000
C1580       C  0.23548477  0.62999937  0.06582293    -0.28900
C1581       C  0.29148272  0.56737671  0.11501301    -0.03100
C1582       C  0.28116109  0.55033462  0.11681271    -0.39700
H1583       H  0.30891237  0.59143027  0.08837021     0.13100
H1584       H  0.29222352  0.61460148  0.06584127     0.12700
H1585       H  0.23767893  0.60614541  0.09874106     0.12200
H1586       H  0.25431480  0.58300028  0.12100167     0.12400
H1587       H  0.25869462  0.61815219  0.04881814     0.15200
H1588       H  0.23016576  0.63439151  0.08040343     0.13900
H1589       H  0.30749546  0.56724589  0.11669526     0.11600
H1590       H  0.26525364  0.55004892  0.11444081     0.13600
C1591       C  0.23831555  0.60077817  0.92044599     0.19700
C1592       C  0.25897443  0.59931091  0.91858061    -0.18400
C1593       C  0.26733333  0.58382969  0.90775976    -0.10700
C1594       C  0.25511291  0.56950587  0.89888193     0.22000
C1595       C  0.23448598  0.57147770  0.90012283    -0.20000
C1596       C  0.22613059  0.58723492  0.91055317    -0.10800
C1597       C  0.26360105  0.55140674  0.89010815    -0.15000
C1598       C  0.28079633  0.55166117  0.88010268    -0.28900
C1599       C  0.22917163  0.61457663  0.93462217    -0.03100
C1600       C  0.23565147  0.61529681  0.95343838    -0.39700
H1601       H  0.26859567  0.60967550  0.92611463     0.13100
H1602       H  0.28331485  0.58244659  0.90733054     0.12700
H1603       H  0.22486281  0.56052642  0.89345472     0.12200
H1604       H  0.21015381  0.58811763  0.91197202     0.12400
H1605       H  0.25561514  0.53751754  0.89215800     0.15200
H1606       H  0.28804162  0.56569421  0.87668250     0.13900
H1607       H  0.21487505  0.62097162  0.93084311     0.11600
H1608       H  0.24880246  0.60702700  0.95772464     0.13600
C1609       C  0.07794879  0.64817302  0.11358379     0.19700
C1610       C  0.09848971  0.64655897  0.11624731    -0.18400
C1611       C  0.11131680  0.64658646  0.09985802    -0.10700
C1612       C  0.10376196  0.64778010  0.08042330     0.22000
C1613       C  0.08322155  0.64942204  0.07775721    -0.20000
C1614       C  0.07041873  0.64986066  0.09417764    -0.10800
C1615       C  0.11689113  0.64564791  0.06281088    -0.15000
C1616       C  0.13535425  0.65313190  0.06222362    -0.28900
C1617       C  0.06462484  0.64584602  0.13103368    -0.03100
C1618       C  0.04697661  0.65498533  0.13253983    -0.39700
H1619       H  0.10458797  0.64491871  0.13104053     0.13100
H1620       H  0.12704924  0.64478790  0.10238451     0.12700
H1621       H  0.07706299  0.65009156  0.06291820     0.12200
H1622       H  0.05460317  0.65057854  0.09162939     0.12400
H1623       H  0.11116323  0.63778926  0.04999977     0.15200
H1624       H  0.14056894  0.66221292  0.07441859     0.13900
H1625       H  0.06949909  0.63609648  0.14299886     0.11600
H1626       H  0.04258456  0.66588576  0.12142459     0.13600
C1627       C  0.26999099  0.39521558  0.10759583     0.19700
C1628       C  0.28017986  0.38250149  0.09470601    -0.18400
C1629       C  0.26967568  0.36936290  0.08283640    -0.10700
C1630       C  0.24895107  0.36862468  0.08414822     0.22000
C1631       C  0.23908540  0.37929438  0.09898566    -0.20000
C1632       C  0.24954361  0.39273821  0.11057991    -0.10800
C1633       C  0.23712315  0.36056941  0.06787165    -0.15000
C1634       C  0.24090016  0.36658524  0.04913168    -0.28900
C1635       C  0.28069922  0.41244233  0.11539897    -0.03100
C1636       C  0.27250439  0.43064151  0.11602983    -0.39700
H1637       H  0.29602082  0.38403633  0.09246495     0.13100
H1638       H  0.27750042  0.36098289  0.07159680     0.12700
H1639       H  0.22307730  0.37872369  0.10023205     0.12200
H1640       H  0.24150682  0.40200187  0.12092805     0.12400
H1641       H  0.22292915  0.35384606  0.07162553     0.15200
H1642       H  0.25448712  0.37459744  0.04564443     0.13900
H1643       H  0.29658469  0.41078778  0.11750170     0.11600
H1644       H  0.25675424  0.43278894  0.11358205     0.13600
C1645       C  0.21307357  0.39518361  0.90133165     0.19700
C1646       C  0.23066952  0.39071414  0.89128141    -0.18400
C1647       C  0.24074445  0.40555576  0.88090213    -0.10700
C1648       C  0.23331297  0.42509869  0.88056551     0.22000
C1649       C  0.21464085  0.42893576  0.88890159    -0.20000
C1650       C  0.20442806  0.41394865  0.89907143    -0.10800
C1651       C  0.24621496  0.44204011  0.87519555    -0.15000
C1652       C  0.26222685  0.44000541  0.86358858    -0.28900
C1653       C  0.20647177  0.38255270  0.91787516    -0.03100
C1654       C  0.21880308  0.37983231  0.93329671    -0.39700
H1655       H  0.23751341  0.37627092  0.89305155     0.13100
H1656       H  0.25522284  0.40199301  0.87500480     0.12700
H1657       H  0.20866801  0.44385624  0.88883656     0.12200
H1658       H  0.19087926  0.41758300  0.90692940     0.12400
H1659       H  0.24346084  0.45613094  0.88247209     0.15200
H1660       H  0.26445840  0.42655762  0.85508474     0.13900
H1661       H  0.19072996  0.37946650  0.91947052     0.11600
H1662       H  0.23399267  0.38520080  0.93238870     0.13600
C1663       C  0.07367960  0.35712700  0.10009616     0.19700
C1664       C  0.07583796  0.36900508  0.08305629    -0.18400
C1665       C  0.09259638  0.36736842  0.07103785    -0.01100
C1666       C  0.10778019  0.35387925  0.07590400     0.22000
C1667       C  0.10530059  0.34134769  0.09243138    -0.20000
C1668       C  0.08842386  0.34292079  0.10446782    -0.10800
C1669       C  0.12597831  0.35240654  0.06356475    -0.15000
C1670       C  0.13298779  0.36823946  0.05359095    -0.28900
C1671       C  0.05584448  0.36019095  0.11270222    -0.03100
C1672       C  0.05417120  0.35341941  0.13143551    -0.39700
H1673       H  0.06456075  0.37975349  0.07908057     0.13100
H1674       H  0.09346109  0.37658609  0.05782148     0.12700
H1675       H  0.11655468  0.33050726  0.09617422     0.12200
H1676       H  0.08707639  0.33287845  0.11699522     0.12400
H1677       H  0.13348361  0.33819425  0.06247233     0.15200
H1678       H  0.12588440  0.38257592  0.05534021     0.13900
H1679       H  0.04393178  0.36920541  0.10659037     0.11600
H1680       H  0.06596046  0.34482426  0.13820171     0.13600
C1681       C  0.18310512  0.52429510  0.00867970     0.19700
C1682       C  0.19922946  0.51165477  0.01270636    -0.18400
C1683       C  0.19751953  0.49092409  0.01116821    -0.10700
C1684       C  0.17956024  0.48203759  0.00531665     0.22000
C1685       C  0.16335653  0.49466071  0.00142880    -0.20000
C1686       C  0.16506639  0.51544689  0.00299732    -0.10800
C1687       C  0.17692383  0.45985066  0.00353100    -0.15000
C1688       C  0.19198196  0.44653875  0.00282348    -0.28900
C1689       C  0.18621639  0.54642787  0.01001051    -0.03100
C1690       C  0.17179642  0.56045691  0.00958871    -0.39700
H1691       H  0.21332952  0.51786398  0.01715517     0.13100
H1692       H  0.21032779  0.48203493  0.01483585     0.12700
H1693       H  0.14928331  0.48841371  0.99696680     0.12200
H1694       H  0.15227749  0.52441945  0.99945936     0.12400
H1695       H  0.16186667  0.45429079  0.00237276     0.15200
H1696       H  0.20716280  0.45173568  0.00321830     0.13900
H1697       H  0.20144427  0.55143356  0.01150883     0.11600
H1698       H  0.15639129  0.55606153  0.00854145     0.13600
C1699       C  0.39903621  0.41403576  0.84760412     0.19700
C1700       C  0.41952542  0.41754588  0.84706310    -0.18400
C1701       C  0.43292296  0.40174757  0.84726103    -0.10700
C1702       C  0.42606679  0.38206068  0.84842117     0.22000
C1703       C  0.40556549  0.37850243  0.84887367    -0.20000
C1704       C  0.39212597  0.39433108  0.84824089    -0.10800
C1705       C  0.44006137  0.36523918  0.85077459    -0.15000
C1706       C  0.45787759  0.36492513  0.84176250    -0.28900
C1707       C  0.38545611  0.43118571  0.84974424    -0.03100
C1708       C  0.36678644  0.43156211  0.84278436    -0.39700
H1709       H  0.42519072  0.43260481  0.84687522     0.13100
H1710       H  0.44863638  0.40499913  0.84739242     0.12700
H1711       H  0.39996240  0.36346021  0.85000649     0.12200
H1712       H  0.37642103  0.39115884  0.84919583     0.12400
H1713       H  0.43545018  0.35265903  0.85990111     0.15200
H1714       H  0.46185564  0.37660524  0.83125274     0.13900
H1715       H  0.39118050  0.44412448  0.85741166     0.11600
H1716       H  0.36125784  0.41940860  0.83384624     0.13600
C1717       C  0.39035913  0.40403997  0.13778693     0.19700
C1718       C  0.38798773  0.38388011  0.13326210    -0.18400
C1719       C  0.40441724  0.37125796  0.13249011    -0.10700
C1720       C  0.42354648  0.37876480  0.13589752     0.22000
C1721       C  0.42582702  0.39884007  0.14076839    -0.20000
C1722       C  0.40940794  0.41134928  0.14185477    -0.10800
C1723       C  0.44159604  0.36677414  0.13256485    -0.15000
C1724       C  0.44239361  0.34689591  0.13440823    -0.28900
C1725       C  0.37328247  0.41763208  0.13573509    -0.03100
C1726       C  0.37138936  0.43436455  0.14632530    -0.39700
H1727       H  0.37345928  0.37802881  0.12978299     0.13100
H1728       H  0.40219807  0.35596223  0.12823547     0.12700
H1729       H  0.44044751  0.40499132  0.14323082     0.12200
H1730       H  0.41180373  0.42693580  0.14483190     0.12400
H1731       H  0.45505478  0.37486140  0.12872894     0.15200
H1732       H  0.42964056  0.33853220  0.13970840     0.13900
H1733       H  0.36214435  0.41398160  0.12471114     0.11600
H1734       H  0.38143732  0.43744044  0.15849165     0.13600
C1735       C  0.50519242  0.31953720  0.96671869     0.19700
C1736       C  0.49234494  0.32958518  0.97976772    -0.18400
C1737       C  0.49477506  0.32837068  0.00055810    -0.10700
C1738       C  0.51003393  0.31677414  0.00897554     0.22000
C1739       C  0.52265803  0.30648799  0.99590393    -0.20000
C1740       C  0.52038169  0.30790017  0.97515541    -0.10800
C1741       C  0.51275992  0.31410454  0.03110276    -0.15000
C1742       C  0.50547756  0.32640921  0.04522540    -0.28900
C1743       C  0.50176752  0.32060184  0.94457015    -0.03100
C1744       C  0.51635319  0.31828232  0.93088466    -0.39700
H1745       H  0.48031307  0.33842779  0.97383981     0.13100
H1746       H  0.48434302  0.33614593  0.00992052     0.12700
H1747       H  0.53436595  0.29718761  0.00178836     0.12200
H1748       H  0.53025475  0.29939962  0.96580414     0.12400
H1749       H  0.52155627  0.30147992  0.03595187     0.15200
H1750       H  0.49732096  0.33955549  0.04075110     0.13900
H1751       H  0.48685872  0.32379992  0.93942994     0.11600
H1752       H  0.53145078  0.31628082  0.93602425     0.13600
C1753       C  0.43986842  0.22596165  0.04675717     0.19700
C1754       C  0.45748982  0.23375761  0.03887675    -0.18400
C1755       C  0.47413174  0.23556058  0.05097034    -0.10700
C1756       C  0.47320529  0.22949639  0.07095803     0.22000
C1757       C  0.45652146  0.21906591  0.07789275    -0.20000
C1758       C  0.43989902  0.21736916  0.06586626    -0.10800
C1759       C  0.48744693  0.23823694  0.08490463    -0.15000
C1760       C  0.48067628  0.24686187  0.10157566    -0.28900
C1761       C  0.42159588  0.22689647  0.03492867    -0.03100
C1762       C  0.40366662  0.22878297  0.04346146    -0.39700
H1763       H  0.45794006  0.23971892  0.02387815     0.13100
H1764       H  0.48701640  0.24339062  0.04527006     0.12700
H1765       H  0.45580246  0.21355106  0.09304352     0.12200
H1766       H  0.42686111  0.21002012  0.07181102     0.12400
H1767       H  0.50184484  0.24253130  0.07894601     0.15200
H1768       H  0.46584135  0.24360319  0.10704426     0.13900
H1769       H  0.42284462  0.22492027  0.01893675     0.11600
H1770       H  0.40222629  0.23043272  0.05944662     0.13600
C1771       C  0.42180604  0.25134077  0.87876462     0.19700
C1772       C  0.40494253  0.26004636  0.88724680    -0.18400
C1773       C  0.39207225  0.24875423  0.89900756    -0.10700
C1774       C  0.39604989  0.22856246  0.90260083     0.22000
C1775       C  0.41133283  0.21934221  0.89196687    -0.20000
C1776       C  0.42412700  0.23060450  0.88006666    -0.10800
C1777       C  0.38662894  0.21740306  0.91913912    -0.15000
C1778       C  0.37990392  0.22650841  0.93554104    -0.28900
C1779       C  0.43744055  0.26468574  0.87081328    -0.03100
C1780       C  0.45635855  0.25905845  0.86818374    -0.39700
H1781       H  0.40243185  0.27587993  0.88591080     0.13100
H1782       H  0.37970959  0.25613884  0.90606139     0.12700
H1783       H  0.41431442  0.20366235  0.89402865     0.12200
H1784       H  0.43626333  0.22306788  0.87283408     0.12400
H1785       H  0.38818746  0.20134203  0.91926096     0.15200
H1786       H  0.37873783  0.24254313  0.93610288     0.13900
H1787       H  0.43375745  0.28031332  0.86909337     0.11600
H1788       H  0.46082239  0.24368246  0.86952697     0.13600
C1789       C  0.23570712  0.27238447  0.00658620     0.19700
C1790       C  0.25160586  0.27155179  0.02000331    -0.18400
C1791       C  0.26656828  0.25727027  0.01814945    -0.10700
C1792       C  0.26612277  0.24320503  0.00277459     0.22000
C1793       C  0.24984355  0.24350693  0.98973965    -0.20000
C1794       C  0.23487044  0.25798029  0.99150110    -0.10800
C1795       C  0.28237757  0.22815610  0.00019216    -0.15000
C1796       C  0.30128893  0.23192075  0.00553103    -0.28900
C1797       C  0.22072483  0.28867757  0.00901653    -0.03100
C1798       C  0.20852803  0.29545000  0.99457718    -0.39700
H1799       H  0.25262283  0.28221923  0.03192712     0.13100
H1800       H  0.27837834  0.25720440  0.02898085     0.12700
H1801       H  0.24888408  0.23272245  0.97792751     0.12200
H1802       H  0.22269602  0.25773799  0.98110550     0.12400
H1803       H  0.27898572  0.21432103  0.99275083     0.15200
H1804       H  0.30484750  0.24645023  0.01139170     0.13900
H1805       H  0.22120930  0.29686603  0.02287169     0.11600
H1806       H  0.20863958  0.28848252  0.98009652     0.13600
C1807       C  0.62829462  0.27825935  0.06883555     0.19700
C1808       C  0.62109069  0.29745732  0.06540021    -0.18400
C1809       C  0.61280177  0.30813832  0.08108351    -0.10700
C1810       C  0.61174225  0.29957119  0.10013960     0.22000
C1811       C  0.62195415  0.28184426  0.10406091    -0.20000
C1812       C  0.63009357  0.27114475  0.08841297    -0.10800
C1813       C  0.59545259  0.30578262  0.11331315    -0.15000
C1814       C  0.58176797  0.29214150  0.11835357    -0.28900
C1815       C  0.63067913  0.26465420  0.05200977    -0.03100
C1816       C  0.62165735  0.24684562  0.05248924    -0.39700
H1817       H  0.61988905  0.30323652  0.05038027     0.13100
H1818       H  0.60505688  0.32185475  0.07783280     0.12700
H1819       H  0.62154109  0.27518219  0.11876870     0.12200
H1820       H  0.63616114  0.25653834  0.09134701     0.12400
H1821       H  0.59162793  0.32144564  0.11386263     0.15200
H1822       H  0.58447040  0.27657036  0.11521469     0.13900
H1823       H  0.63831143  0.26983913  0.03869022     0.11600
H1824       H  0.61309420  0.24239828  0.06551837     0.13600
C1825       C  0.60351339  0.25928521  0.87152517     0.19700
C1826       C  0.61663616  0.26946162  0.88394773    -0.18400
C1827       C  0.62711785  0.25920205  0.89856486    -0.10700
C1828       C  0.62454628  0.23861364  0.90082986     0.22000
C1829       C  0.61397525  0.22815071  0.88638388    -0.20000
C1830       C  0.60349172  0.23841347  0.87175104    -0.10800
C1831       C  0.62996462  0.22805543  0.91931546    -0.15000
C1832       C  0.63004989  0.23707104  0.93709406    -0.28900
C1833       C  0.58783819  0.27093856  0.86158718    -0.03100
C1834       C  0.56953220  0.26359941  0.85877954    -0.39700
H1835       H  0.61735175  0.28553198  0.88363940     0.13100
H1836       H  0.63608541  0.26757160  0.90884285     0.12700
H1837       H  0.61234019  0.21217890  0.88747921     0.12200
H1838       H  0.59434679  0.23004142  0.86164153     0.12400
H1839       H  0.63091273  0.21195638  0.91876173     0.15200
H1840       H  0.62888769  0.25307452  0.93828262     0.13900
H1841       H  0.59012489  0.28688296  0.86026573     0.11600
H1842       H  0.56652970  0.24782640  0.86009940     0.13600
C1843       C  0.47665777  0.17837664  0.99806124     0.19700
C1844       C  0.48965322  0.17560676  0.98187286    -0.18400
C1845       C  0.51036101  0.17721258  0.98402313    -0.10700
C1846       C  0.51891284  0.18183626  0.00254757     0.22000
C1847       C  0.50589333  0.18466134  0.01873967    -0.20000
C1848       C  0.48517248  0.18303620  0.01658852    -0.10800
C1849       C  0.54105489  0.18389212  0.00580672    -0.15000
C1850       C  0.55517401  0.18284479  0.99139654    -0.28900
C1851       C  0.45451632  0.17707540  0.99463365    -0.03100
C1852       C  0.44055167  0.17602173  0.00917894    -0.39700
H1853       H  0.48373902  0.17213875  0.96736237     0.13100
H1854       H  0.51943982  0.17475974  0.97102052     0.12700
H1855       H  0.51178165  0.18833991  0.03321055     0.12200
H1856       H  0.47599192  0.18583130  0.02946781     0.12400
H1857       H  0.54594142  0.18662969  0.02091637     0.15200
H1858       H  0.55081166  0.18037157  0.97614027     0.13900
H1859       H  0.44950144  0.17714805  0.97931245     0.11600
H1860       H  0.44516508  0.17568203  0.02457792     0.13600
C1861       C  0.39710752  0.84603375  0.42232791     0.19700
C1862       C  0.40347291  0.83036347  0.41028834    -0.18400
C1863       C  0.41660264  0.83395786  0.39446867    -0.10700
C1864       C  0.42321741  0.85339072  0.39033008     0.22000
C1865       C  0.41624411  0.86906774  0.40194094    -0.20000
C1866       C  0.40339305  0.86546880  0.41778458    -0.10800
C1867       C  0.43681314  0.85821496  0.37370266    -0.15000
C1868       C  0.45053852  0.84564289  0.36664890    -0.28900
C1869       C  0.38302610  0.84233974  0.43889779    -0.03100
C1870       C  0.38361294  0.85342853  0.45537254    -0.39700
H1871       H  0.39841093  0.81535887  0.41323467     0.13100
H1872       H  0.42123286  0.82163208  0.38534573     0.12700
H1873       H  0.42083879  0.88419337  0.39879479     0.12200
H1874       H  0.39806834  0.87802117  0.42620473     0.12400
H1875       H  0.43620692  0.87327055  0.36779529     0.15200
H1876       H  0.45203869  0.83082781  0.37292699     0.13900
H1877       H  0.37140524  0.83134495  0.43697970     0.11600
H1878       H  0.39568537  0.86391274  0.45735129     0.13600
C1879       C  0.38884073  0.14430029  0.42409548     0.19700
C1880       C  0.40389679  0.13033576  0.42094434    -0.18400
C1881       C  0.41849715  0.13356509  0.40648818    -0.10700
C1882       C  0.41839628  0.15093112  0.39467989     0.22000
C1883       C  0.40331530  0.16494055  0.39782454    -0.20000
C1884       C  0.38872639  0.16174509  0.41242882    -0.10800
C1885       C  0.43265288  0.15391126  0.37788626    -0.15000
C1886       C  0.45018816  0.14444148  0.37679255    -0.28900
C1887       C  0.37289039  0.13937418  0.43868143    -0.03100
C1888       C  0.36154171  0.15295625  0.44789449    -0.39700
H1889       H  0.40418126  0.11664912  0.42950542     0.13100
H1890       H  0.42928971  0.12196526  0.40415184     0.12700
H1891       H  0.40263636  0.17825718  0.38872885     0.12200
H1892       H  0.37705529  0.17261212  0.41402543     0.12400
H1893       H  0.42814843  0.16349578  0.36565107     0.15200
H1894       H  0.45516481  0.13532413  0.38915355     0.13900
H1895       H  0.37079116  0.12377653  0.44239518     0.11600
H1896       H  0.36413111  0.16867607  0.44535278     0.13600
C1897       C  0.49910136  0.22932386  0.25138023     0.19700
C1898       C  0.51636880  0.23826172  0.24361756    -0.18400
C1899       C  0.51543403  0.25215922  0.22798068    -0.10700
C1900       C  0.49711172  0.25739920  0.21949525     0.22000
C1901       C  0.47982753  0.24855489  0.22734049    -0.20000
C1902       C  0.48074897  0.23478911  0.24311099    -0.10800
C1903       C  0.49551222  0.27047487  0.20141637    -0.15000
C1904       C  0.50960817  0.28342644  0.19511805    -0.28900
C1905       C  0.50112730  0.21308161  0.26660838    -0.03100
C1906       C  0.48640273  0.20635545  0.27866244    -0.39700
H1907       H  0.53075822  0.23415833  0.24942635     0.13100
H1908       H  0.52917354  0.25810409  0.22212198     0.12700
H1909       H  0.46551849  0.25202676  0.22096332     0.12200
H1910       H  0.46712876  0.22792502  0.24819276     0.12400
H1911       H  0.48212610  0.26899769  0.19262704     0.15200
H1912       H  0.52277450  0.28577637  0.20398680     0.13900
H1913       H  0.51554032  0.20595430  0.26754227     0.11600
H1914       H  0.47206016  0.21362278  0.27860192     0.13600
C1915       C  0.49542611  0.02276616  0.31793564     0.19700
C1916       C  0.48142728  0.00921987  0.31054093    -0.18400
C1917       C  0.48445303  0.98859010  0.31191779    -0.10700
C1918       C  0.50182245  0.98074217  0.32049435     0.22000
C1919       C  0.51600106  0.99430055  0.32763283    -0.20000
C1920       C  0.51279461  0.01499249  0.32657470    -0.10800
C1921       C  0.50598355  0.95869604  0.32113571    -0.15000
C1922       C  0.49157316  0.94465059  0.32168046    -0.28900
C1923       C  0.49197687  0.04471057  0.31499211    -0.03100
C1924       C  0.49916325  0.05918066  0.32689610    -0.39700
H1925       H  0.46805283  0.01464590  0.30350642     0.13100
H1926       H  0.47338625  0.97886931  0.30564844     0.12700
H1927       H  0.52966833  0.98885588  0.33404317     0.12200
H1928       H  0.52419822  0.02485587  0.33198236     0.12400
H1929       H  0.52135841  0.95395169  0.32142130     0.15200
H1930       H  0.47623799  0.94942850  0.32251775     0.13900
H1931       H  0.48252588  0.04907629  0.30267310     0.11600
H1932       H  0.50763784  0.05502809  0.33996302     0.13600
C1933       C  0.39076459  0.11944323  0.28220486     0.19700
C1934       C  0.38433507  0.12134795  0.26254243    -0.18400
C1935       C  0.37394181  0.10590783  0.25376457    -0.10700
C1936       C  0.36995085  0.08837347  0.26464199     0.22000
C1937       C  0.37414176  0.08774250  0.28503312    -0.20000
C1938       C  0.38435140  0.10335374  0.29386067    -0.10800
C1939       C  0.36566324  0.06954126  0.25441416    -0.15000
C1940       C  0.35830458  0.06899673  0.23599440    -0.28900
C1941       C  0.40866975  0.12993496  0.28839724    -0.03100
C1942       C  0.42562499  0.12568672  0.27879669    -0.39700
H1943       H  0.38937131  0.13366690  0.25337674     0.13100
H1944       H  0.37121999  0.10698740  0.23797356     0.12700
H1945       H  0.37116348  0.07442997  0.29368628     0.12200
H1946       H  0.38939696  0.10167544  0.30905205     0.12400
H1947       H  0.37061401  0.05584936  0.26145965     0.15200
H1948       H  0.35190795  0.08218927  0.22925946     0.13900
H1949       H  0.40890503  0.13707927  0.30282052     0.11600
H1950       H  0.42527705  0.11652955  0.26554992     0.13600
C1951       C  0.37786261  0.91840167  0.24611764     0.19700
C1952       C  0.38710308  0.90302253  0.23568814    -0.18400
C1953       C  0.39961439  0.88985449  0.24564519    -0.10700
C1954       C  0.40269056  0.89187055  0.26617467     0.22000
C1955       C  0.39138802  0.90559716  0.27689955    -0.20000
C1956       C  0.37913615  0.91893050  0.26691577    -0.10800
C1957       C  0.41932779  0.88213459  0.27642544    -0.15000
C1958       C  0.43701289  0.87956893  0.26751107    -0.28900
C1959       C  0.36946368  0.93512117  0.23480883    -0.03100
C1960       C  0.37366249  0.95395189  0.23980933    -0.39700
H1961       H  0.38596816  0.90222496  0.21965168     0.13100
H1962       H  0.40766680  0.87889414  0.23715368     0.12700
H1963       H  0.39331241  0.90713377  0.29279928     0.12200
H1964       H  0.37162654  0.93037428  0.27528099     0.12400
H1965       H  0.41812351  0.88035124  0.29246340     0.15200
H1966       H  0.43875515  0.88179113  0.25159902     0.13900
H1967       H  0.36261720  0.93196305  0.22058103     0.11600
H1968       H  0.38179089  0.95706416  0.25334819     0.13600
C1969       C  0.34923536  0.11907037  0.08372779     0.19700
C1970       C  0.36370263  0.11645014  0.09844823    -0.18400
C1971       C  0.36178414  0.10159643  0.11284658    -0.10700
C1972       C  0.34530807  0.08885197  0.11291421     0.22000
C1973       C  0.33039560  0.09179879  0.09870124    -0.20000
C1974       C  0.33237873  0.10667448  0.08408089    -0.10800
C1975       C  0.34366892  0.07256042  0.12783879    -0.15000
C1976       C  0.35977156  0.06230624  0.13362157    -0.28900
C1977       C  0.35304801  0.13456852  0.06828171    -0.03100
C1978       C  0.34077008  0.13972145  0.05333897    -0.39700
H1979       H  0.37673626  0.12584899  0.09873255     0.13100
H1980       H  0.37323526  0.10013792  0.12399320     0.12700
H1981       H  0.31746139  0.08226505  0.09861704     0.12200
H1982       H  0.32083843  0.10814157  0.07308836     0.12400
H1983       H  0.32914621  0.06869436  0.13374743     0.15200
H1984       H  0.37394383  0.06530735  0.12646186     0.13900
H1985       H  0.36724132  0.14213298  0.06923131     0.11600
H1986       H  0.32633703  0.13286919  0.05181595     0.13600
C1987       C  0.23877107  0.98474051  0.27132744     0.19700
C1988       C  0.23927360  0.00078147  0.25766546    -0.18400
C1989       C  0.25420347  0.00212360  0.24290554    -0.10700
C1990       C  0.26905916  0.98744769  0.24137191     0.22000
C1991       C  0.26820875  0.97135180  0.25480593    -0.20000
C1992       C  0.25336494  0.97000083  0.26942557    -0.10800
C1993       C  0.28606870  0.98820827  0.22670478    -0.15000
C1994       C  0.29042417  0.00335559  0.21400969    -0.28900
C1995       C  0.22372744  0.98262798  0.28790241    -0.03100
C1996       C  0.21212374  0.99743359  0.29485967    -0.39700
H1997       H  0.22817249  0.01232299  0.25820371     0.13100
H1998       H  0.25400268  0.01471525  0.23286633     0.12700
H1999       H  0.27928834  0.95974867  0.25416692     0.12200
H2000       H  0.25349823  0.95741838  0.27954573     0.12400
H2001       H  0.29644142  0.97589002  0.22733124     0.15200
H2002       H  0.28091343  0.01628895  0.21338184     0.13900
H2003       H  0.22332297  0.96850530  0.29580718     0.11600
H2004       H  0.21303357  0.01203077  0.28802359     0.13600
C2005       C  0.55819005  0.08676051  0.25026424     0.19700
C2006       C  0.57476129  0.09574778  0.24123252    -0.18400
C2007       C  0.59271582  0.08556346  0.24011938    -0.10700
C2008       C  0.59425864  0.06614162  0.24785146     0.22000
C2009       C  0.57772978  0.05745690  0.25717782    -0.20000
C2010       C  0.55983458  0.06758203  0.25819727    -0.10800
C2011       C  0.61141439  0.05313663  0.24395153    -0.15000
C2012       C  0.62395028  0.05628927  0.22873305    -0.28900
C2013       C  0.53946118  0.09743604  0.25344922    -0.03100
C2014       C  0.53937255  0.11665440  0.25837400    -0.39700
H2015       H  0.57384374  0.11053575  0.23490279     0.13100
H2016       H  0.60509859  0.09289777  0.23295411     0.12700
H2017       H  0.57843003  0.04246962  0.26309473     0.12200
H2018       H  0.54729641  0.06050621  0.26548035     0.12400
H2019       H  0.61041991  0.03814072  0.25002581     0.15200
H2020       H  0.62645243  0.07099219  0.22258588     0.13900
H2021       H  0.52632747  0.08846796  0.25635522     0.11600
H2022       H  0.55280887  0.12546693  0.25702753     0.13600
C2023       C  0.58913790  0.88540736  0.25546134     0.19700
C2024       C  0.60413716  0.89658045  0.26439032    -0.18400
C2025       C  0.61715735  0.90768271  0.25266938    -0.10700
C2026       C  0.61544758  0.90743165  0.23189910     0.22000
C2027       C  0.60238005  0.89408696  0.22294150    -0.20000
C2028       C  0.58916670  0.88311970  0.23468294    -0.10800
C2029       C  0.62405304  0.92355269  0.21983297    -0.15000
C2030       C  0.62044184  0.94241361  0.22502560    -0.28900
C2031       C  0.57234369  0.87895622  0.26802618    -0.03100
C2032       C  0.55365122  0.87870087  0.26125683    -0.39700
H2033       H  0.60460613  0.89822336  0.28039731     0.13100
H2034       H  0.62745793  0.91769577  0.25978321     0.12700
H2035       H  0.60110003  0.89356772  0.20690157     0.12200
H2036       H  0.57826175  0.87390014  0.22744615     0.12400
H2037       H  0.63036365  0.92016964  0.20536153     0.15200
H2038       H  0.61236845  0.94549738  0.23868726     0.13900
H2039       H  0.57496034  0.87725596  0.28389642     0.11600
H2040       H  0.55047678  0.88061221  0.24555490     0.13600
C2041       C  0.64667400  0.11073793  0.07235944     0.19700
C2042       C  0.66324347  0.10170241  0.08113132    -0.18400
C2043       C  0.66087978  0.08592747  0.09466324    -0.10700
C2044       C  0.64182409  0.07874881  0.09948004     0.22000
C2045       C  0.62535335  0.08737810  0.09018932    -0.20000
C2046       C  0.62769834  0.10316990  0.07682684    -0.10800
C2047       C  0.63837934  0.06199343  0.11360082    -0.15000
C2048       C  0.65092069  0.05694471  0.12830511    -0.28900
C2049       C  0.64945721  0.12750619  0.05805821    -0.03100
C2050       C  0.63557662  0.14161550  0.05559689    -0.39700
H2051       H  0.67803306  0.10697250  0.07762611     0.13100
H2052       H  0.67398776  0.07923407  0.10102035     0.12700
H2053       H  0.61055141  0.08191897  0.09334197     0.12200
H2054       H  0.61460343  0.10913770  0.06974736     0.12400
H2055       H  0.62432430  0.05418214  0.11249698     0.15200
H2056       H  0.66454162  0.06522745  0.13042419     0.13900
H2057       H  0.66312080  0.12825499  0.04948138     0.11600
H2058       H  0.62237948  0.14137047  0.06488766     0.13600
C2059       C  0.47790338  0.00910737  0.18016619     0.19700
C2060       C  0.48948369  0.00467098  0.16324080    -0.18400
C2061       C  0.51037690  0.00371919  0.16410536    -0.10700
C2062       C  0.52052307  0.00721666  0.18203346     0.22000
C2063       C  0.50896269  0.01156559  0.19895753    -0.20000
C2064       C  0.48810946  0.01258557  0.19808982    -0.10800
C2065       C  0.54286232  0.00599364  0.18410841    -0.15000
C2066       C  0.55624812  0.00570730  0.16891954    -0.28900
C2067       C  0.45547035  0.00989051  0.17829000    -0.03100
C2068       C  0.44246449  0.01280849  0.19350445    -0.39700
H2069       H  0.48230559  0.00181676  0.14917789     0.13100
H2070       H  0.51841063  0.99997276  0.15072084     0.12700
H2071       H  0.51613930  0.01428551  0.21305817     0.12200
H2072       H  0.48022739  0.01614773  0.21159193     0.12400
H2073       H  0.54861619  0.00576261  0.19917511     0.15200
H2074       H  0.55105950  0.00661904  0.15370617     0.13900
H2075       H  0.44935761  0.00763545  0.16356811     0.11600
H2076       H  0.44804092  0.01476244  0.20842260     0.13600
C2077       C  0.57363381  0.86944865  0.39108529     0.19700
C2078       C  0.58281398  0.85155402  0.39694477    -0.18400
C2079       C  0.59664292  0.85129977  0.41251523    -0.10700
C2080       C  0.60154870  0.86893015  0.42249271     0.22000
C2081       C  0.59217287  0.88662787  0.41671190    -0.20000
C2082       C  0.57844381  0.88688128  0.40125856    -0.10800
C2083       C  0.61730022  0.87015396  0.43789789    -0.15000
C2084       C  0.62497069  0.85469350  0.44818249    -0.28900
C2085       C  0.55975502  0.87106392  0.37396090    -0.03100
C2086       C  0.54994755  0.85573944  0.36579989    -0.39700
H2087       H  0.57988955  0.83786597  0.38920633     0.13100
H2088       H  0.60387978  0.83744370  0.41618789     0.12700
H2089       H  0.59570521  0.90045788  0.42401146     0.12200
H2090       H  0.57169690  0.90088884  0.39707869     0.12400
H2091       H  0.62288125  0.88494953  0.44097798     0.15200
H2092       H  0.61926710  0.83978852  0.44618199     0.13900
H2093       H  0.55698977  0.88592168  0.36816763     0.11600
H2094       H  0.55157766  0.84083935  0.37181199     0.13600
C2095       C  0.57028465  0.15316983  0.38626440     0.19700
C2096       C  0.56880558  0.15663745  0.40674123    -0.18400
C2097       C  0.58581757  0.15688824  0.41850594    -0.10700
C2098       C  0.60446723  0.15322157  0.40992220     0.22000
C2099       C  0.60594291  0.14999896  0.38944097    -0.20000
C2100       C  0.58903617  0.15013378  0.37764961    -0.10800
C2101       C  0.62215170  0.14994294  0.42222416    -0.15000
C2102       C  0.62568553  0.15963346  0.43918305    -0.28900
C2103       C  0.55208011  0.15061200  0.37450108    -0.03100
C2104       C  0.55124351  0.15536083  0.35511973    -0.39700
H2105       H  0.55444494  0.15868919  0.41367891     0.13100
H2106       H  0.58425263  0.15885940  0.43439252     0.12700
H2107       H  0.62016281  0.14679217  0.38265551     0.12200
H2108       H  0.59058650  0.14680559  0.36199913     0.12400
H2109       H  0.63265002  0.13881716  0.41714269     0.15200
H2110       H  0.61635963  0.17192160  0.44375410     0.13900
H2111       H  0.53920329  0.14418394  0.38188370     0.11600
H2112       H  0.56347002  0.16317675  0.34798981     0.13600
C2113       C  0.76770783  0.26037841  0.49938877     0.19700
C2114       C  0.76565152  0.24316642  0.51113864    -0.18400
C2115       C  0.74973947  0.23017063  0.50857106    -0.10700
C2116       C  0.73536589  0.23374691  0.49389748     0.22000
C2117       C  0.73671767  0.25150080  0.48274265    -0.20000
C2118       C  0.75280555  0.26467598  0.48536006    -0.10800
C2119       C  0.71946833  0.21864747  0.48994490    -0.15000
C2120       C  0.72354178  0.19905403  0.49125011    -0.28900
C2121       C  0.78655596  0.27197218  0.50140903    -0.03100
C2122       C  0.79016386  0.29077136  0.49502890    -0.39700
H2123       H  0.77670694  0.23948237  0.52220219     0.13100
H2124       H  0.74887401  0.21709936  0.51800267     0.12700
H2125       H  0.72577226  0.25478038  0.47147142     0.12200
H2126       H  0.75390510  0.27770636  0.47592021     0.12400
H2127       H  0.70487523  0.22354040  0.48528474     0.15200
H2128       H  0.73873073  0.19470028  0.49432028     0.13900
H2129       H  0.79851457  0.26417208  0.50890274     0.11600
H2130       H  0.77847240  0.29952576  0.48827072     0.13600
C2131       C  0.66815852  0.02294851  0.49290540     0.19700
C2132       C  0.67599458  0.01107306  0.50832372    -0.18400
C2133       C  0.67703176  0.99023965  0.50678705    -0.10700
C2134       C  0.67011521  0.98040061  0.48970708     0.22000
C2135       C  0.66232585  0.99226579  0.47425805    -0.20000
C2136       C  0.66126744  0.01311375  0.47580215    -0.10800
C2137       C  0.67107078  0.95807188  0.48712682    -0.15000
C2138       C  0.67462209  0.94476929  0.50195906    -0.28900
C2139       C  0.66773691  0.04530999  0.49540840    -0.03100
C2140       C  0.66308874  0.05871877  0.48098237    -0.39700
H2141       H  0.68155670  0.01798283  0.52167764     0.13100
H2142       H  0.68355917  0.98205892  0.51897831     0.12700
H2143       H  0.65689960  0.98534366  0.46085621     0.12200
H2144       H  0.65493473  0.02130191  0.46351908     0.12400
H2145       H  0.66829384  0.95232931  0.47234896     0.15200
H2146       H  0.67676983  0.95009487  0.51695379     0.13900
H2147       H  0.67238271  0.05104985  0.50970350     0.11600
H2148       H  0.65919089  0.05352902  0.46631118     0.13600
C2149       C  0.72443994  0.10241188  0.39184088     0.19700
C2150       C  0.71560112  0.08574879  0.38321459    -0.18400
C2151       C  0.72715501  0.07217939  0.37277110    -0.10700
C2152       C  0.74768070  0.07529321  0.37079964     0.22000
C2153       C  0.75590496  0.09326081  0.37718774    -0.20000
C2154       C  0.74438552  0.10674296  0.38772197    -0.10800
C2155       C  0.76141159  0.05946861  0.36458737    -0.15000
C2156       C  0.75734246  0.04005356  0.36690722    -0.28900
C2157       C  0.71332716  0.11315318  0.40723630    -0.03100
C2158       C  0.72213557  0.11890879  0.42415428    -0.39700
H2159       H  0.70010342  0.08240670  0.38589682     0.13100
H2160       H  0.72015590  0.05890828  0.36718925     0.12700
H2161       H  0.77161396  0.09618519  0.37539899     0.12200
H2162       H  0.75134648  0.11992015  0.39362511     0.12400
H2163       H  0.77644927  0.06391263  0.36067080     0.15200
H2164       H  0.74260518  0.03487177  0.37083537     0.13900
H2165       H  0.69724925  0.11302857  0.40627843     0.11600
H2166       H  0.73813070  0.11811988  0.42571392     0.13600
C2167       C  0.72273099  0.88438653  0.39689732     0.19700
C2168       C  0.74214803  0.87815090  0.39270305    -0.18400
C2169       C  0.75384464  0.88907511  0.37947075    -0.10700
C2170       C  0.74617068  0.90628862  0.37045939     0.22000
C2171       C  0.72588714  0.91038913  0.37207546    -0.20000
C2172       C  0.71416753  0.89943255  0.38529132    -0.10800
C2173       C  0.75935962  0.92218154  0.36314299    -0.15000
C2174       C  0.77587506  0.92674760  0.37324315    -0.28900
C2175       C  0.71241456  0.87820014  0.41525533    -0.03100
C2176       C  0.72236430  0.87526188  0.43230839    -0.39700
H2177       H  0.74876630  0.86590312  0.40078591     0.13100
H2178       H  0.76930181  0.88513717  0.37768906     0.12700
H2179       H  0.71963705  0.92339957  0.36491793     0.12200
H2180       H  0.69905408  0.90414351  0.38801887     0.12400
H2181       H  0.75370441  0.93240928  0.35195073     0.15200
H2182       H  0.78111625  0.91709520  0.38511584     0.13900
H2183       H  0.69633433  0.87927032  0.41558264     0.11600
H2184       H  0.73844229  0.87462333  0.43243960     0.13600
C2185       C  0.91655883  0.10277932  0.36406160     0.19700
C2186       C  0.90920441  0.09463479  0.38188141    -0.18400
C2187       C  0.89457977  0.08000706  0.38170425    -0.10700
C2188       C  0.88698123  0.07303812  0.36369804     0.22000
C2189       C  0.89429502  0.08108765  0.34574487    -0.20000
C2190       C  0.90893661  0.09585044  0.34591484    -0.10800
C2191       C  0.87081232  0.05812183  0.36451464    -0.15000
C2192       C  0.86635939  0.04564756  0.34965027    -0.28900
C2193       C  0.93155280  0.11889299  0.36541703    -0.03100
C2194       C  0.94253748  0.12586118  0.35011664    -0.39700
H2195       H  0.91470169  0.09971798  0.39607809     0.13100
H2196       H  0.88912329  0.07414761  0.39574113     0.12700
H2197       H  0.88837704  0.07648395  0.33158901     0.12200
H2198       H  0.91378312  0.10202608  0.33184218     0.12400
H2199       H  0.86270792  0.05681612  0.37846905     0.15200
H2200       H  0.87493668  0.04576386  0.33597199     0.13900
H2201       H  0.93396133  0.12508941  0.38009454     0.11600
H2202       H  0.94112773  0.11966012  0.33536595     0.13600
C2203       C  0.73198760  0.99862520  0.23311820     0.19700
C2204       C  0.74781984  0.01159330  0.23727386    -0.18400
C2205       C  0.76117567  0.00747599  0.25285387    -0.10700
C2206       C  0.75868660  0.99046216  0.26490929     0.22000
C2207       C  0.74308930  0.97740209  0.26049470    -0.20000
C2208       C  0.73003309  0.98130515  0.24481344    -0.10800
C2209       C  0.76994362  0.98710481  0.28377460    -0.15000
C2210       C  0.78863107  0.99331641  0.28766920    -0.28900
C2211       C  0.71645938  0.00429806  0.21816151    -0.03100
C2212       C  0.70551454  0.99070841  0.20837527    -0.39700
H2213       H  0.74957373  0.02518903  0.22874510     0.13100
H2214       H  0.77272566  0.01811294  0.25609220     0.12700
H2215       H  0.74057404  0.96435099  0.26968444     0.12200
H2216       H  0.71776880  0.97121051  0.24262803     0.12400
H2217       H  0.76205228  0.97896038  0.29537396     0.15200
H2218       H  0.79746415  0.00037005  0.27607765     0.13900
H2219       H  0.71332067  0.01997416  0.21597767     0.11600
H2220       H  0.70933717  0.97511873  0.20992605     0.13600
C2221       C  0.72289399  0.08828099  0.56989149     0.19700
C2222       C  0.72175124  0.08933258  0.59064249    -0.18400
C2223       C  0.72763902  0.07313434  0.60223467    -0.10700
C2224       C  0.73416787  0.05565836  0.59301483     0.22000
C2225       C  0.73399888  0.05423616  0.57230828    -0.20000
C2226       C  0.72855990  0.07046521  0.56079949    -0.10800
C2227       C  0.74359756  0.03951528  0.60412244    -0.15000
C2228       C  0.75708609  0.04349490  0.61805503    -0.28900
C2229       C  0.71614471  0.10494915  0.55759908    -0.03100
C2230       C  0.72441406  0.10871650  0.53978800    -0.39700
H2231       H  0.71673311  0.10277796  0.59780738     0.13100
H2232       H  0.72739338  0.07433267  0.61827526     0.12700
H2233       H  0.73892981  0.04082212  0.56499789     0.12200
H2234       H  0.72862249  0.06900790  0.54477580     0.12400
H2235       H  0.74290178  0.02474716  0.59773347     0.15200
H2236       H  0.75849607  0.05835892  0.62405688     0.13900
H2237       H  0.70241343  0.11217534  0.56195894     0.11600
H2238       H  0.73874033  0.10241895  0.53593249     0.13600
C2239       C  0.76715697  0.89885349  0.61238748     0.19700
C2240       C  0.77641875  0.88803636  0.59727843    -0.18400
C2241       C  0.76495756  0.87776661  0.58348346    -0.10700
C2242       C  0.74414780  0.87816717  0.58489589     0.22000
C2243       C  0.73520072  0.88675177  0.60159241    -0.20000
C2244       C  0.74661241  0.89719411  0.61518748    -0.10800
C2245       C  0.73117801  0.87227713  0.56831962    -0.15000
C2246       C  0.73673386  0.87374831  0.54913581    -0.28900
C2247       C  0.77813787  0.91503201  0.62193984    -0.03100
C2248       C  0.77158077  0.93365406  0.61932678    -0.39700
H2249       H  0.79229546  0.88909007  0.59502902     0.13100
H2250       H  0.77232509  0.87056904  0.57118469     0.12700
H2251       H  0.71920970  0.88694064  0.60316441     0.12200
H2252       H  0.73927483  0.90534909  0.62691480     0.12400
H2253       H  0.71567275  0.86942397  0.57183411     0.15200
H2254       H  0.75201703  0.87674075  0.54499389     0.13900
H2255       H  0.79292025  0.91229343  0.62768730     0.11600
H2256       H  0.75778719  0.93619706  0.61138881     0.13600
C2257       C  0.91633836  0.10603574  0.63935957     0.19700
C2258       C  0.89598814  0.10845658  0.63617833    -0.18400
C2259       C  0.88343892  0.09201106  0.63602773    -0.10700
C2260       C  0.89115236  0.07281723  0.63877208     0.22000
C2261       C  0.91151440  0.07036880  0.64188794    -0.20000
C2262       C  0.92403334  0.08685461  0.64234775    -0.10800
C2263       C  0.87845080  0.05510611  0.63698142    -0.15000
C2264       C  0.85947476  0.05501348  0.64296487    -0.28900
C2265       C  0.92940331  0.12350840  0.63753437    -0.03100
C2266       C  0.94665772  0.12499758  0.64722600    -0.39700
H2267       H  0.88984980  0.12308361  0.63349940     0.13100
H2268       H  0.86785642  0.09428407  0.63300074     0.12700
H2269       H  0.91775212  0.05566255  0.64372924     0.12200
H2270       H  0.93977828  0.08446835  0.64419571     0.12400
H2271       H  0.88497056  0.04173461  0.63082828     0.15200
H2272       H  0.85330504  0.06777959  0.65056270     0.13900
H2273       H  0.92469592  0.13547016  0.62769718     0.11600
H2274       H  0.95091899  0.11383451  0.65812207     0.13600
C2275       C  0.81955564  0.99524607  0.51740483     0.19700
C2276       C  0.80661969  0.00472909  0.50400833    -0.18400
C2277       C  0.80891869  0.00271896  0.48332239    -0.10700
C2278       C  0.82412698  0.99085283  0.47529634     0.22000
C2279       C  0.83706366  0.98130860  0.48869445    -0.20000
C2280       C  0.83496178  0.98360033  0.50942969    -0.10800
C2281       C  0.82602521  0.98718076  0.45325257    -0.15000
C2282       C  0.81991725  0.00023778  0.43914484    -0.28900
C2283       C  0.81546745  0.99660248  0.53940011    -0.03100
C2284       C  0.82931247  0.99467404  0.55382711    -0.39700
H2285       H  0.79445385  0.01358682  0.50959668     0.13100
H2286       H  0.79826728  0.00992210  0.47370751     0.12700
H2287       H  0.84878296  0.97187886  0.48309031     0.12200
H2288       H  0.84497796  0.97565937  0.51916153     0.12400
H2289       H  0.83296053  0.97343944  0.44854175     0.15200
H2290       H  0.81416871  0.01451069  0.44382449     0.13900
H2291       H  0.80031939  0.99981806  0.54386640     0.11600
H2292       H  0.84473210  0.99275205  0.54962761     0.13600
C2293       C  0.86222202  0.60139740  0.42894286     0.19700
C2294       C  0.87834275  0.59563757  0.41714349    -0.18400
C2295       C  0.87555423  0.58328497  0.40084464    -0.10700
C2296       C  0.85651191  0.57629263  0.39607240     0.22000
C2297       C  0.84044513  0.58154295  0.40822754    -0.20000
C2298       C  0.84321203  0.59408334  0.42446924    -0.10800
C2299       C  0.85337765  0.56235482  0.37942549    -0.15000
C2300       C  0.86511513  0.56225321  0.36323032    -0.28900
C2301       C  0.86587870  0.61513064  0.44564412    -0.03100
C2302       C  0.85230341  0.62824649  0.45190285    -0.39700
H2303       H  0.89315033  0.60086953  0.42044376     0.13100
H2304       H  0.88843411  0.57887604  0.39232684     0.12700
H2305       H  0.82572682  0.57595487  0.40511703     0.12200
H2306       H  0.83053506  0.59775002  0.43362336     0.12400
H2307       H  0.84149030  0.55152773  0.38085909     0.15200
H2308       H  0.87644316  0.57357734  0.36130720     0.13900
H2309       H  0.88082356  0.61585754  0.45158039     0.11600
H2310       H  0.83776968  0.62873286  0.44505242     0.13600
C2311       C  0.74280867  0.77242380  0.49730134     0.19700
C2312       C  0.75802264  0.76806564  0.48368683    -0.18400
C2313       C  0.77179945  0.75294273  0.48746966    -0.10700
C2314       C  0.77102210  0.74169962  0.50521774     0.22000
C2315       C  0.75567813  0.74592879  0.51885210    -0.20000
C2316       C  0.74159208  0.76095294  0.51486761    -0.10800
C2317       C  0.78697656  0.72680283  0.51028341    -0.15000
C2318       C  0.79719825  0.71689225  0.49613310    -0.28900
C2319       C  0.73070583  0.79080886  0.49383314    -0.03100
C2320       C  0.71178201  0.79405279  0.49993188    -0.39700
H2321       H  0.75963491  0.77685233  0.47021744     0.13100
H2322       H  0.78363367  0.75080283  0.47680773     0.12700
H2323       H  0.75477415  0.73779569  0.53277363     0.12200
H2324       H  0.73040039  0.76421495  0.52594513     0.12400
H2325       H  0.79076218  0.72451109  0.52580508     0.15200
H2326       H  0.79264609  0.71871652  0.48076739     0.13900
H2327       H  0.73812032  0.80259527  0.48554174     0.11600
H2328       H  0.70340838  0.78220553  0.50707357     0.13600
C2329       C  0.14709079  0.58230187  0.39985895     0.19700
C2330       C  0.13087597  0.59347889  0.40649604    -0.18400
C2331       C  0.13337866  0.60846569  0.42041705    -0.10700
C2332       C  0.15226997  0.61273907  0.42803953     0.22000
C2333       C  0.16840353  0.60105118  0.42211124    -0.20000
C2334       C  0.16591111  0.58600455  0.40807052    -0.10800
C2335       C  0.15521348  0.62887234  0.44264721    -0.15000
C2336       C  0.14364897  0.64510473  0.44275494    -0.28900
C2337       C  0.14336611  0.56714925  0.38437467    -0.03100
C2338       C  0.15750865  0.55780049  0.37383568    -0.39700
H2339       H  0.11615771  0.59073839  0.40074234     0.13100
H2340       H  0.12040425  0.61651169  0.42532083     0.12700
H2341       H  0.18301329  0.60377207  0.42813626     0.12200
H2342       H  0.17873646  0.57740393  0.40384859     0.12400
H2343       H  0.16696848  0.62729262  0.45353951     0.15200
H2344       H  0.13247971  0.64709001  0.43133858     0.13900
H2345       H  0.12793777  0.56412110  0.38090630     0.11600
H2346       H  0.17308962  0.56043566  0.37662776     0.13600
C2347       C  0.23828756  0.74314689  0.50824542     0.19700
C2348       C  0.24445310  0.75621328  0.52321014    -0.18400
C2349       C  0.26141063  0.76807978  0.52077327    -0.10700
C2350       C  0.27263353  0.76745163  0.50308104     0.22000
C2351       C  0.26670938  0.75407308  0.48824437    -0.20000
C2352       C  0.24987239  0.74191588  0.49083896    -0.10800
C2353       C  0.28880668  0.78226406  0.49878946    -0.15000
C2354       C  0.29940238  0.79142880  0.51308587    -0.28900
C2355       C  0.21849536  0.73318892  0.51036987    -0.03100
C2356       C  0.21293386  0.71615998  0.50135640    -0.39700
H2357       H  0.23571578  0.75772570  0.53666137     0.13100
H2358       H  0.26497775  0.77852436  0.53235474     0.12700
H2359       H  0.27482196  0.75343661  0.47433460     0.12200
H2360       H  0.24538013  0.73239020  0.47878202     0.12400
H2361       H  0.29106951  0.78670973  0.48338235     0.15200
H2362       H  0.29763298  0.78663022  0.52843136     0.13900
H2363       H  0.20777242  0.74055661  0.51988330     0.11600
H2364       H  0.22365824  0.70777810  0.49277682     0.13600
C2365       C  0.98214374  0.68658822  0.49945010     0.19700
C2366       C  0.99490290  0.70057312  0.49038528    -0.18400
C2367       C  0.01566108  0.69897040  0.49196368    -0.10700
C2368       C  0.02442583  0.68338315  0.50293389     0.22000
C2369       C  0.01166245  0.66952348  0.51220283    -0.20000
C2370       C  0.99088585  0.67097561  0.51039347    -0.10800
C2371       C  0.04658590  0.68170194  0.50585062    -0.15000
C2372       C  0.06025369  0.68941480  0.49312072    -0.28900
C2373       C  0.95997621  0.68954476  0.49813800    -0.03100
C2374       C  0.94624699  0.67494685  0.50040805    -0.39700
H2375       H  0.98876126  0.71294553  0.48209224     0.13100
H2376       H  0.02472843  0.71033534  0.48502607     0.12700
H2377       H  0.01780587  0.65749133  0.52098157     0.12200
H2378       H  0.98174427  0.66014752  0.51807207     0.12400
H2379       H  0.05178662  0.67336418  0.51869129     0.15200
H2380       H  0.05516501  0.69676683  0.47967663     0.13900
H2381       H  0.95477894  0.70442652  0.49465419     0.11600
H2382       H  0.95120245  0.65979661  0.50276211     0.13600
C2383       C  0.12245325  0.78644248  0.44605278     0.19700
C2384       C  0.10386311  0.79393420  0.45140511    -0.18400
C2385       C  0.09051540  0.79958199  0.43668117    -0.10700
C2386       C  0.09585309  0.79818621  0.41654696     0.22000
C2387       C  0.11536260  0.79347400  0.41132099    -0.20000
C2388       C  0.12866589  0.78751668  0.42606959    -0.10800
C2389       C  0.08028754  0.79880254  0.40135419    -0.15000
C2390       C  0.06538272  0.78557535  0.40242926    -0.28900
C2391       C  0.13215429  0.77278388  0.46015705    -0.03100
C2392       C  0.13453081  0.75385935  0.45458573    -0.39700
H2393       H  0.09882663  0.79319653  0.46670833     0.13100
H2394       H  0.07551820  0.80351875  0.44089178     0.12700
H2395       H  0.11969659  0.79256469  0.39583280     0.12200
H2396       H  0.14306057  0.78186786  0.42172851     0.12400
H2397       H  0.08022176  0.81087623  0.39056325     0.15200
H2398       H  0.06592565  0.77380819  0.41358488     0.13900
H2399       H  0.13232092  0.77652569  0.47584116     0.11600
H2400       H  0.13225404  0.74990620  0.43911354     0.13600
C2401       C  0.89291041  0.71832136  0.40313528     0.19700
C2402       C  0.90943264  0.70671494  0.39828749    -0.18400
C2403       C  0.92448209  0.71470553  0.38642452    -0.10700
C2404       C  0.92269204  0.73411062  0.37897371     0.22000
C2405       C  0.90501867  0.74465130  0.38177823    -0.20000
C2406       C  0.89027724  0.73692258  0.39414025    -0.10800
C2407       C  0.94002292  0.74519456  0.37182403    -0.15000
C2408       C  0.95622660  0.74652896  0.38332611    -0.28900
C2409       C  0.88098648  0.71261751  0.42043831    -0.03100
C2410       C  0.88250916  0.72328773  0.43717092    -0.39700
H2411       H  0.91159047  0.69233152  0.40526051     0.13100
H2412       H  0.93803905  0.70638897  0.38426394     0.12700
H2413       H  0.90349854  0.75967318  0.37611175     0.12200
H2414       H  0.87755526  0.74598605  0.39784960     0.12400
H2415       H  0.93763361  0.75591686  0.35991637     0.15200
H2416       H  0.95813779  0.73653640  0.39593528     0.13900
H2417       H  0.87458346  0.69780928  0.42081007     0.11600
H2418       H  0.89092436  0.73706525  0.43712540     0.13600
C2419       C  0.09152488  0.92702153  0.35664005     0.19700
C2420       C  0.07169098  0.92912245  0.36257644    -0.18400
C2421       C  0.05857437  0.91305168  0.36160413    -0.10700
C2422       C  0.06520287  0.89438794  0.35501114     0.22000
C2423       C  0.08493299  0.89243850  0.34871414    -0.20000
C2424       C  0.09800029  0.90849114  0.34962291    -0.10800
C2425       C  0.05233767  0.87644824  0.35505736    -0.15000
C2426       C  0.03661664  0.87425271  0.36722047    -0.28900
C2427       C  0.10547456  0.94385747  0.35931386    -0.03100
C2428       C  0.12207041  0.94605224  0.34836584    -0.39700
H2429       H  0.06635870  0.94322268  0.36806831     0.13100
H2430       H  0.04334470  0.91535782  0.36606050     0.12700
H2431       H  0.09044493  0.87824337  0.34363850     0.12200
H2432       H  0.11331169  0.90607672  0.34549140     0.12400
H2433       H  0.05703285  0.86392471  0.34610217     0.15200
H2434       H  0.03237797  0.88612143  0.37716732     0.13900
H2435       H  0.10219159  0.95445923  0.37096894     0.11600
H2436       H  0.12497204  0.93613116  0.33604826     0.13600
C2437       C  0.89031167  0.91243931  0.36013559     0.19700
C2438       C  0.88658478  0.89221444  0.36361746    -0.18400
C2439       C  0.90220790  0.87866389  0.36481894    -0.10700
C2440       C  0.92191106  0.88522183  0.36295766     0.22000
C2441       C  0.92563306  0.90543476  0.35933164    -0.20000
C2442       C  0.90997504  0.91892710  0.35771371    -0.10800
C2443       C  0.93883770  0.87170396  0.36654042    -0.15000
C2444       C  0.93853156  0.85226325  0.36213764    -0.28900
C2445       C  0.87363052  0.92662827  0.36125785    -0.03100
C2446       C  0.87274542  0.94360172  0.35063262    -0.39700
H2447       H  0.87154729  0.88695885  0.36580860     0.13100
H2448       H  0.89887418  0.86326638  0.36812288     0.12700
H2449       H  0.94071699  0.91083957  0.35809728     0.12200
H2450       H  0.91331531  0.93451073  0.35551156     0.12400
H2451       H  0.95224346  0.87813242  0.37269493     0.15200
H2452       H  0.92596437  0.84590172  0.35441217     0.13900
H2453       H  0.86137012  0.92273980  0.37109409     0.11600
H2454       H  0.88392767  0.94696835  0.33944104     0.13600
C2455       C  0.99870090  0.72406846  0.25107391     0.19700
C2456       C  0.01289384  0.72551352  0.26628207    -0.18400
C2457       C  0.01241981  0.74109718  0.28006294    -0.10700
C2458       C  0.99740703  0.75557230  0.27933622     0.22000
C2459       C  0.98330898  0.75427596  0.26396151    -0.20000
C2460       C  0.98406298  0.73888719  0.24985770    -0.10800
C2461       C  0.99476597  0.77063062  0.29558869    -0.15000
C2462       C  0.00963162  0.77765160  0.30713920    -0.28900
C2463       C  0.99831670  0.70569966  0.23853512    -0.03100
C2464       C  0.99228246  0.70461960  0.21934071    -0.39700
H2465       H  0.02419078  0.71419628  0.26781541     0.13100
H2466       H  0.02324739  0.74114391  0.29188040     0.12700
H2467       H  0.97138108  0.76498479  0.26311848     0.12200
H2468       H  0.97263071  0.73805400  0.23865283     0.12400
H2469       H  0.97974980  0.77566410  0.29851649     0.15200
H2470       H  0.02481855  0.77354520  0.30375073     0.13900
H2471       H  0.00390365  0.69223857  0.24553632     0.11600
H2472       H  0.98812384  0.71805908  0.21139610     0.13600
C2473       C  0.10427223  0.72443114  0.59773322     0.19700
C2474       C  0.10678655  0.74397955  0.60433233    -0.18400
C2475       C  0.09204767  0.75294948  0.61572520    -0.10700
C2476       C  0.07468580  0.74239059  0.62077644     0.22000
C2477       C  0.07315516  0.72232965  0.61572532    -0.20000
C2478       C  0.08794243  0.71335107  0.60445760    -0.10800
C2479       C  0.05684829  0.75246491  0.62844567    -0.15000
C2480       C  0.05744205  0.76994967  0.63773233    -0.28900
C2481       C  0.11643600  0.71602461  0.58164317    -0.03100
C2482       C  0.12373279  0.72726263  0.56669340    -0.39700
H2483       H  0.11954179  0.75269147  0.59982222     0.13100
H2484       H  0.09373055  0.76850205  0.61917303     0.12700
H2485       H  0.05996304  0.71390832  0.61951824     0.12200
H2486       H  0.08580692  0.69818652  0.59964806     0.12400
H2487       H  0.04256075  0.74571359  0.62530789     0.15200
H2488       H  0.07145142  0.77635284  0.64228810     0.13900
H2489       H  0.11608760  0.69997778  0.58000006     0.11600
H2490       H  0.12412113  0.74332752  0.56763664     0.13600
C2491       C  0.92183780  0.74346101  0.61581173     0.19700
C2492       C  0.91893725  0.72323029  0.61235256    -0.18400
C2493       C  0.90343448  0.71704749  0.60023467    -0.10700
C2494       C  0.89126021  0.73111453  0.59088270     0.22000
C2495       C  0.89352137  0.75130007  0.59507938    -0.20000
C2496       C  0.90864493  0.75744204  0.60762482    -0.10800
C2497       C  0.87859220  0.72458755  0.57456419    -0.15000
C2498       C  0.88125464  0.73223716  0.55623229    -0.28900
C2499       C  0.94004212  0.75018840  0.62558656    -0.03100
C2500       C  0.93969500  0.76581921  0.63764583    -0.39700
H2501       H  0.92907649  0.71233007  0.61843154     0.13100
H2502       H  0.90189180  0.70139995  0.59693941     0.12700
H2503       H  0.88424983  0.76229981  0.58788267     0.12200
H2504       H  0.91085778  0.77319987  0.60978505     0.12400
H2505       H  0.87069108  0.71063041  0.57655843     0.15200
H2506       H  0.89085294  0.74504912  0.55401663     0.13900
H2507       H  0.95402515  0.74343231  0.62129378     0.11600
H2508       H  0.92555565  0.77169970  0.64270020     0.13600
C2509       C  0.92418741  0.89591892  0.65557207     0.19700
C2510       C  0.92736473  0.91606182  0.65139051    -0.18400
C2511       C  0.91183324  0.92961577  0.65287299    -0.10700
C2512       C  0.89263600  0.92313057  0.65807157     0.22000
C2513       C  0.88962741  0.90309459  0.66297287    -0.20000
C2514       C  0.90521742  0.88955226  0.66164516    -0.10800
C2515       C  0.87529349  0.93659531  0.65745062    -0.15000
C2516       C  0.87463357  0.95229047  0.64506077    -0.28900
C2517       C  0.94057554  0.88177106  0.65223159    -0.03100
C2518       C  0.94217767  0.86462769  0.66235493    -0.39700
H2519       H  0.94189076  0.92129831  0.64682314     0.13100
H2520       H  0.91492337  0.94508343  0.64973780     0.12700
H2521       H  0.87500039  0.89776073  0.66705109     0.12200
H2522       H  0.90214386  0.87403701  0.66457415     0.12400
H2523       H  0.86214139  0.93246935  0.66590945     0.15200
H2524       H  0.88723637  0.95582661  0.63560663     0.13900
H2525       H  0.95179088  0.88573117  0.64123805     0.11600
H2526       H  0.93184406  0.86111061  0.67429564     0.13600
C2527       C  0.07295597  0.89128084  0.66025657     0.19700
C2528       C  0.08684477  0.89664301  0.67472232    -0.18400
C2529       C  0.10084169  0.91155589  0.67073600    -0.10700
C2530       C  0.10125635  0.92117244  0.65205984     0.22000
C2531       C  0.08751414  0.91560851  0.63760020    -0.20000
C2532       C  0.07355416  0.90086762  0.64159093    -0.10800
C2533       C  0.11647515  0.93608180  0.64642239    -0.15000
C2534       C  0.12649728  0.94717711  0.65950269    -0.28900
C2535       C  0.05889341  0.87471870  0.66416259    -0.03100
C2536       C  0.04130623  0.87389671  0.65495301    -0.39700
H2537       H  0.08694678  0.88918359  0.68904212     0.13100
H2538       H  0.11162044  0.91502508  0.68205094     0.12700
H2539       H  0.08774656  0.92252226  0.62300199     0.12200
H2540       H  0.06371775  0.89657143  0.62971096     0.12400
H2541       H  0.11922325  0.93829101  0.63062444     0.15200
H2542       H  0.12341271  0.94594990  0.67530461     0.13900
H2543       H  0.06348547  0.86264086  0.67389446     0.11600
H2544       H  0.03646853  0.88637721  0.64589304     0.13600
C2545       C  0.99426554  0.80592454  0.49177366     0.19700
C2546       C  0.99335965  0.82410139  0.50210450    -0.18400
C2547       C  0.99374462  0.82454289  0.52315212    -0.10700
C2548       C  0.99504846  0.80681707  0.53446766     0.22000
C2549       C  0.99589714  0.78882850  0.52402499    -0.20000
C2550       C  0.99553035  0.78839311  0.50318287    -0.10800
C2551       C  0.99571834  0.80586378  0.55694237    -0.15000
C2552       C  0.99438744  0.82139300  0.56961227    -0.28900
C2553       C  0.99453766  0.80408514  0.46936982    -0.03100
C2554       C  0.99193791  0.81896010  0.45590645    -0.39700
H2555       H  0.99256526  0.83803959  0.49409019     0.13100
H2556       H  0.99313854  0.83880053  0.53037545     0.12700
H2557       H  0.99691500  0.77487159  0.53206037     0.12200
H2558       H  0.99631287  0.77411989  0.49591229     0.12400
H2559       H  0.99729064  0.79115963  0.56350701     0.15200
H2560       H  0.99266860  0.83632362  0.56376310     0.13900
H2561       H  0.99716794  0.78929660  0.46358531     0.11600
H2562       H  0.98911626  0.83392677  0.46098915     0.13600
C2563       C  0.58483512  0.39228284  0.84960901     0.19700
C2564       C  0.59000554  0.40330248  0.86639354    -0.18400
C2565       C  0.60315616  0.41922436  0.86481630    -0.10700
C2566       C  0.61161708  0.42444973  0.84634843     0.22000
C2567       C  0.60672665  0.41324595  0.82955274    -0.20000
C2568       C  0.59331619  0.39738159  0.83109465    -0.10800
C2569       C  0.62669965  0.44049082  0.84479480    -0.15000
C2570       C  0.62642040  0.45626246  0.85692808    -0.28900
C2571       C  0.57137006  0.37504204  0.85238837    -0.03100
C2572       C  0.55959307  0.36779075  0.83807777    -0.39700
H2573       H  0.58392371  0.39949023  0.88086518     0.13100
H2574       H  0.60715717  0.42698215  0.87824321     0.12700
H2575       H  0.61336925  0.41672406  0.81525239     0.12200
H2576       H  0.59009476  0.38884183  0.81794500     0.12400
H2577       H  0.63864984  0.43884660  0.83405132     0.15200
H2578       H  0.61396387  0.45831633  0.86698797     0.13900
H2579       H  0.57043271  0.36864945  0.86725815     0.11600
H2580       H  0.55937717  0.37466483  0.82342809     0.13600
C2581       C  0.59828015  0.43180906  0.14581792     0.19700
C2582       C  0.58674356  0.42749480  0.12910635    -0.18400
C2583       C  0.57186426  0.41312219  0.13007188    -0.10700
C2584       C  0.56814507  0.40264998  0.14789343     0.22000
C2585       C  0.57931647  0.40735433  0.16479108    -0.20000
C2586       C  0.59420797  0.42183231  0.16383280    -0.10800
C2587       C  0.55457345  0.38524055  0.14867291    -0.15000
C2588       C  0.54029370  0.38199723  0.13516307    -0.28900
C2589       C  0.61551422  0.44528434  0.14313393    -0.03100
C2590       C  0.62512775  0.45443229  0.15797891    -0.39700
H2591       H  0.58970057  0.43482199  0.11500161     0.13100
H2592       H  0.56413314  0.40961953  0.11650306     0.12700
H2593       H  0.57695224  0.39932962  0.17861978     0.12200
H2594       H  0.60304421  0.42440983  0.17693665     0.12400
H2595       H  0.55729921  0.37408785  0.16009815     0.15200
H2596       H  0.53679708  0.39325380  0.12411788     0.13900
H2597       H  0.62052791  0.44783625  0.12793693     0.11600
H2598       H  0.61982062  0.45330312  0.17319434     0.13600
C2599       C  0.77507496  0.49766850  0.26315120     0.19700
C2600       C  0.76275587  0.48225066  0.25646795    -0.18400
C2601       C  0.74841556  0.48572439  0.24172944    -0.10700
C2602       C  0.74656125  0.50458836  0.23283430     0.22000
C2603       C  0.75862342  0.52008014  0.23978776    -0.20000
C2604       C  0.77248094  0.51676563  0.25499575    -0.10800
C2605       C  0.73458195  0.50766595  0.21441558    -0.15000
C2606       C  0.71641787  0.49977983  0.21132845    -0.28900
C2607       C  0.79247655  0.49294621  0.27603256    -0.03100
C2608       C  0.79920018  0.50482867  0.29065942    -0.39700
H2609       H  0.76467431  0.46732192  0.26222887     0.13100
H2610       H  0.73969721  0.47337281  0.23639281     0.12700
H2611       H  0.75774961  0.53467257  0.23297706     0.12200
H2612       H  0.78205284  0.52884169  0.25943647     0.12400
H2613       H  0.74122410  0.51674605  0.20273460     0.15200
H2614       H  0.70886075  0.49200614  0.22336696     0.13900
H2615       H  0.80049301  0.47935967  0.27279286     0.11600
H2616       H  0.79057368  0.51769433  0.29501503     0.13600
C2617       C  0.67779819  0.49941673  0.98471611     0.19700
C2618       C  0.68885533  0.48754937  0.99797964    -0.18400
C2619       C  0.68639250  0.48902523  0.01874091    -0.10700
C2620       C  0.67294693  0.50270860  0.02701008     0.22000
C2621       C  0.66192510  0.51462490  0.01376467    -0.20000
C2622       C  0.66414701  0.51291075  0.99297126    -0.10800
C2623       C  0.67112677  0.50590070  0.04917869    -0.15000
C2624       C  0.67479065  0.49170742  0.06309615    -0.28900
C2625       C  0.68198915  0.49822386  0.96264291    -0.03100
C2626       C  0.66921459  0.50369835  0.94803615    -0.39700
H2627       H  0.69966828  0.47717359  0.99224241     0.13100
H2628       H  0.69557735  0.47989942  0.02826122     0.12700
H2629       H  0.65162800  0.52548800  0.01954916     0.12200
H2630       H  0.65563129  0.52268306  0.98345870     0.12400
H2631       H  0.66632285  0.52042928  0.05415964     0.15200
H2632       H  0.67844797  0.47684576  0.05816932     0.13900
H2633       H  0.69622108  0.49210986  0.95824449     0.11600
H2634       H  0.65447684  0.50870649  0.95207789     0.13600
C2635       C  0.75374339  0.42795318  0.10659431     0.19700
C2636       C  0.77403084  0.42457214  0.10390406    -0.18400
C2637       C  0.78062428  0.41293512  0.08810878    -0.10700
C2638       C  0.76693561  0.40494282  0.07459772     0.22000
C2639       C  0.74668052  0.40802685  0.07753084    -0.20000
C2640       C  0.74010059  0.41932231  0.09342458    -0.10800
C2641       C  0.77340309  0.39578508  0.05591162    -0.15000
C2642       C  0.79024742  0.38549048  0.05432344    -0.28900
C2643       C  0.74692086  0.44282725  0.12104288    -0.03100
C2644       C  0.72895711  0.44113026  0.12935879    -0.39700
H2645       H  0.78475443  0.43147629  0.11360321     0.13100
H2646       H  0.79641823  0.41126154  0.08580347     0.12700
H2647       H  0.73596931  0.40229354  0.06706909     0.12200
H2648       H  0.72437584  0.42229136  0.09460880     0.12400
H2649       H  0.76422707  0.39815997  0.04285642     0.15200
H2650       H  0.79884623  0.38177854  0.06745074     0.13900
H2651       H  0.75507585  0.45671163  0.12187999     0.11600
H2652       H  0.72119313  0.42699780  0.12864315     0.13600
C2653       C  0.72293386  0.40227685  0.88545213     0.19700
C2654       C  0.71512393  0.39691518  0.90406563    -0.18400
C2655       C  0.72597624  0.38470816  0.91676631    -0.10700
C2656       C  0.74471890  0.37782510  0.91087789     0.22000
C2657       C  0.75123724  0.38106495  0.89129637    -0.20000
C2658       C  0.74045642  0.39348948  0.87864738    -0.10800
C2659       C  0.75902532  0.37054316  0.92568545    -0.15000
C2660       C  0.76133702  0.38021168  0.94294554    -0.28900
C2661       C  0.71582892  0.42056878  0.87603933    -0.03100
C2662       C  0.72215350  0.43787861  0.88347554    -0.39700
H2663       H  0.70163125  0.40373604  0.90949002     0.13100
H2664       H  0.72051302  0.38199150  0.93170447     0.12700
H2665       H  0.76562251  0.37574199  0.88651270     0.12200
H2666       H  0.74669422  0.39771059  0.86436064     0.12400
H2667       H  0.76973857  0.35940653  0.92114872     0.15200
H2668       H  0.75144776  0.39233323  0.94677833     0.13900
H2669       H  0.70430560  0.41989592  0.86484200     0.11600
H2670       H  0.73312958  0.43779280  0.89529108     0.13600
C2671       C  0.93522791  0.35220947  0.08482086     0.19700
C2672       C  0.93806779  0.36053329  0.06583622    -0.18400
C2673       C  0.92345068  0.35885294  0.05126336    -0.10700
C2674       C  0.90546845  0.34904347  0.05554454     0.22000
C2675       C  0.90291899  0.34019104  0.07432097    -0.20000
C2676       C  0.91752180  0.34183993  0.08885583    -0.10800
C2677       C  0.88862081  0.34841460  0.04139469    -0.15000
C2678       C  0.88641406  0.36128341  0.02617454    -0.28900
C2679       C  0.95023778  0.35600409  0.10044359    -0.03100
C2680       C  0.95184214  0.34498009  0.11712431    -0.39700
H2681       H  0.95156761  0.36857838  0.06233763     0.13100
H2682       H  0.92633050  0.36538634  0.03681536     0.12700
H2683       H  0.88922914  0.33256850  0.07803542     0.12200
H2684       H  0.91442522  0.33565974  0.10341763     0.12400
H2685       H  0.87665223  0.33807908  0.04474596     0.15200
H2686       H  0.89770789  0.37230397  0.02290275     0.13900
H2687       H  0.95997547  0.36871517  0.09833056     0.11600
H2688       H  0.94287730  0.33174374  0.11916980     0.13600
C2689       C  0.72986172  0.24905259  0.00237683     0.19700
C2690       C  0.73338916  0.26606759  0.01381739    -0.18400
C2691       C  0.74976642  0.27838628  0.01001964    -0.10700
C2692       C  0.76293290  0.27430414  0.99430692     0.22000
C2693       C  0.75960330  0.25712429  0.98297291    -0.20000
C2694       C  0.74341365  0.24446115  0.98712209    -0.10800
C2695       C  0.77865862  0.28897542  0.98828262    -0.15000
C2696       C  0.78859770  0.30019365  0.00154057    -0.28900
C2697       C  0.71047323  0.23846185  0.00490656    -0.03100
C2698       C  0.70702662  0.21894023  0.00155853    -0.39700
H2699       H  0.72304556  0.27019788  0.02543118     0.13100
H2700       H  0.75147339  0.29171057  0.01874212     0.12700
H2701       H  0.76930552  0.25373733  0.97059176     0.12200
H2702       H  0.74089810  0.23176455  0.97769642     0.12400
H2703       H  0.78151066  0.29110439  0.97250477     0.15200
H2704       H  0.78650707  0.29719233  0.01730286     0.13900
H2705       H  0.69811602  0.24757087  0.00980628     0.11600
H2706       H  0.71924306  0.20908376  0.99803222     0.13600
C2707       C  0.73230136  0.59036831  0.10423896     0.19700
C2708       C  0.72302535  0.60183077  0.08948793    -0.18400
C2709       C  0.73424310  0.61400911  0.07691095    -0.10700
C2710       C  0.75492744  0.61490475  0.07904536     0.22000
C2711       C  0.76385856  0.60512822  0.09515075    -0.20000
C2712       C  0.75266029  0.59291484  0.10767594    -0.10800
C2713       C  0.76796167  0.62410626  0.06391131    -0.15000
C2714       C  0.76305941  0.62552656  0.04459104    -0.28900
C2715       C  0.72062208  0.57469452  0.11430713    -0.03100
C2716       C  0.72873259  0.55762745  0.12085151    -0.39700
H2717       H  0.70725114  0.60044654  0.08690064     0.13100
H2718       H  0.72677176  0.62206412  0.06516812     0.12700
H2719       H  0.77973547  0.60598687  0.09734701     0.12200
H2720       H  0.76011789  0.58499337  0.11952267     0.12400
H2721       H  0.78313173  0.62723412  0.06830897     0.15200
H2722       H  0.74817228  0.62226538  0.03955045     0.13900
H2723       H  0.70458419  0.57611731  0.11394601     0.11600
H2724       H  0.74466230  0.55553071  0.12090757     0.13600
C2725       C  0.75896976  0.58154210  0.87805111     0.19700
C2726       C  0.75230181  0.60110068  0.88016812    -0.18400
C2727       C  0.76387665  0.61484212  0.89027847    -0.10700
C2728       C  0.78233822  0.60910176  0.89791005     0.22000
C2729       C  0.79006371  0.59037928  0.89335926    -0.20000
C2730       C  0.77833436  0.57653022  0.88364647    -0.10800
C2731       C  0.79206412  0.62040068  0.91365417    -0.15000
C2732       C  0.78151467  0.62698016  0.92927143    -0.28900
C2733       C  0.74466372  0.56619519  0.87244442    -0.03100
C2734       C  0.74327720  0.54907420  0.88278757    -0.39700
H2735       H  0.73747076  0.60522662  0.87561221     0.13100
H2736       H  0.75787698  0.62940401  0.89335305     0.12700
H2737       H  0.80438427  0.58581427  0.89901163     0.12200
H2738       H  0.78388924  0.56160623  0.88161478     0.12400
H2739       H  0.80808984  0.61911924  0.91476831     0.15200
H2740       H  0.76543620  0.62769271  0.92867220     0.13900
H2741       H  0.73340968  0.57015704  0.86159899     0.11600
H2742       H  0.75381481  0.54564069  0.89449398     0.13600
C2743       C  0.91863642  0.63953377  0.10566170     0.19700
C2744       C  0.90277818  0.62610909  0.10616410    -0.18400
C2745       C  0.88754862  0.62747178  0.09234633    -0.10700
C2746       C  0.88781942  0.64217017  0.07746502     0.22000
C2747       C  0.90364936  0.65584870  0.07696569    -0.20000
C2748       C  0.91893326  0.65455330  0.09100663    -0.10800
C2749       C  0.87176301  0.64157930  0.06242811    -0.15000
C2750       C  0.86904327  0.65472550  0.04749035    -0.28900
C2751       C  0.93479294  0.63651487  0.12021423    -0.03100
C2752       C  0.94721127  0.65077102  0.12653053    -0.39700
H2753       H  0.90220527  0.61438175  0.11727229     0.13100
H2754       H  0.87562686  0.61669936  0.09311466     0.12700
H2755       H  0.90460984  0.66725635  0.06562661     0.12200
H2756       H  0.93116883  0.66490431  0.08997217     0.12400
H2757       H  0.86167307  0.62902238  0.06356086     0.15200
H2758       H  0.87836657  0.66775162  0.04590000     0.13900
H2759       H  0.93568475  0.62183704  0.12698919     0.11600
H2760       H  0.94601283  0.66586626  0.12091554     0.13600
C2761       C  0.82613376  0.48306196  0.99009218     0.19700
C2762       C  0.81943799  0.49499927  0.00587669    -0.18400
C2763       C  0.82083707  0.51588386  0.00501130    -0.10700
C2764       C  0.82880054  0.52562679  0.98812083     0.22000
C2765       C  0.83542560  0.51364666  0.97232220    -0.20000
C2766       C  0.83425053  0.49274848  0.97330258    -0.10800
C2767       C  0.82952586  0.54802481  0.98583472    -0.15000
C2768       C  0.82752367  0.56119661  0.00090093    -0.28900
C2769       C  0.82308537  0.46083906  0.99115585    -0.03100
C2770       C  0.83399743  0.44716758  0.98116447    -0.39700
H2771       H  0.81288305  0.48812096  0.01894199     0.13100
H2772       H  0.81509842  0.52424967  0.01740333     0.12700
H2773       H  0.84143211  0.52052086  0.95898622     0.12200
H2774       H  0.83916435  0.48426694  0.96060820     0.12400
H2775       H  0.83189652  0.55391963  0.97092980     0.15200
H2776       H  0.82575491  0.55567407  0.01598400     0.13900
H2777       H  0.81158030  0.45546589  0.00118878     0.11600
H2778       H  0.84648917  0.45209589  0.97218240     0.13600
C2779       C  0.60584661  0.57906031  0.86075235     0.19700
C2780       C  0.58551995  0.57597210  0.85774207    -0.18400
C2781       C  0.57247330  0.59205155  0.85667627    -0.10700
C2782       C  0.57952257  0.61153965  0.85897915     0.22000
C2783       C  0.59985940  0.61464776  0.86187972    -0.20000
C2784       C  0.61295227  0.59859903  0.86260088    -0.10800
C2785       C  0.56579250  0.62856065  0.86082900    -0.15000
C2786       C  0.54825146  0.62965534  0.85145401    -0.28900
C2787       C  0.61901519  0.56163339  0.86338470    -0.03100
C2788       C  0.63830072  0.56189457  0.85833160    -0.39700
H2789       H  0.57968467  0.56104461  0.85652170     0.13100
H2790       H  0.55679020  0.58912831  0.85499923     0.12700
H2791       H  0.60555730  0.62951040  0.86403544     0.12200
H2792       H  0.62845268  0.60149022  0.86548398     0.12400
H2793       H  0.57020647  0.64052976  0.87061434     0.15200
H2794       H  0.54422669  0.61864414  0.84047927     0.13900
H2795       H  0.61250485  0.54803390  0.86929100     0.11600
H2796       H  0.64462096  0.57490207  0.85106026     0.13600
C2797       C  0.39510741  0.56884647  0.85325866     0.19700
C2798       C  0.39909736  0.58338816  0.83875201    -0.18400
C2799       C  0.41266865  0.59860354  0.84249487    -0.10700
C2800       C  0.42230451  0.59961502  0.86097717     0.22000
C2801       C  0.41793936  0.58534351  0.87560983    -0.20000
C2802       C  0.40454553  0.57007914  0.87181813    -0.10800
C2803       C  0.43633078  0.61572643  0.86593159    -0.15000
C2804       C  0.44723202  0.62555530  0.85228764    -0.28900
C2805       C  0.37993246  0.55348009  0.84932068    -0.03100
C2806       C  0.38006837  0.53563250  0.85838994    -0.39700
H2807       H  0.39164307  0.58300071  0.82452880     0.13100
H2808       H  0.41517478  0.60975706  0.83110602     0.12700
H2809       H  0.42490482  0.58603059  0.89007836     0.12200
H2810       H  0.40121074  0.55964485  0.88367405     0.12400
H2811       H  0.43835911  0.61902308  0.88159660     0.15200
H2812       H  0.44623645  0.62177296  0.83666001     0.13900
H2813       H  0.36800581  0.55723843  0.83916419     0.11600
H2814       H  0.39236204  0.53144280  0.86789101     0.13600
C2815       C  0.60568885  0.57659515  0.14056960     0.19700
C2816       C  0.59686858  0.58266104  0.15856326    -0.18400
C2817       C  0.58149701  0.59669464  0.15845513    -0.10700
C2818       C  0.57475526  0.60484721  0.14036063     0.22000
C2819       C  0.58372954  0.59882202  0.12258965    -0.20000
C2820       C  0.59891202  0.58490194  0.12268876    -0.10800
C2821       C  0.55870117  0.61980108  0.13881850    -0.15000
C2822       C  0.54583202  0.62461443  0.15334772    -0.28900
C2823       C  0.62208212  0.56196332  0.13921838    -0.03100
C2824       C  0.62947085  0.55113718  0.15436876    -0.39700
H2825       H  0.60179280  0.57684935  0.17271282     0.13100
H2826       H  0.57520733  0.60121424  0.17250831     0.12700
H2827       H  0.57890923  0.60486256  0.10843556     0.12200
H2828       H  0.60540651  0.58060025  0.10860110     0.12400
H2829       H  0.55696983  0.62682983  0.12432434     0.15200
H2830       H  0.54680557  0.61792742  0.16801748     0.13900
H2831       H  0.62829401  0.55975661  0.12445893     0.11600
H2832       H  0.62367321  0.55254594  0.16933529     0.13600
C2833       C  0.40523614  0.54950462  0.16014038     0.19700
C2834       C  0.40503855  0.56489179  0.17406517    -0.18400
C2835       C  0.41821968  0.58087353  0.17207096    -0.10700
C2836       C  0.43184580  0.58146614  0.15617139     0.22000
C2837       C  0.43306818  0.56524495  0.14332921    -0.20000
C2838       C  0.42006648  0.54930375  0.14540869    -0.10800
C2839       C  0.44331422  0.59948769  0.15095404    -0.15000
C2840       C  0.44877238  0.61344521  0.16397361    -0.28900
C2841       C  0.38855372  0.53521931  0.15951098    -0.03100
C2842       C  0.38071060  0.53024873  0.14191920    -0.39700
H2843       H  0.39379054  0.56525323  0.18559878     0.13100
H2844       H  0.41680224  0.59324483  0.18213081     0.12700
H2845       H  0.44360744  0.56527285  0.13112468     0.12200
H2846       H  0.42098212  0.53727768  0.13486161     0.12400
H2847       H  0.44769882  0.60122508  0.13544779     0.15200
H2848       H  0.44614504  0.61143011  0.17979883     0.13900
H2849       H  0.38132540  0.53066437  0.17328135     0.11600
H2850       H  0.38707479  0.53635696  0.12831044     0.13600
C2851       C  0.48475923  0.74539808  0.22066083     0.19700
C2852       C  0.47305377  0.76247668  0.21864133    -0.18400
C2853       C  0.47423024  0.77785896  0.23231612    -0.10700
C2854       C  0.48715577  0.77678896  0.24857154     0.22000
C2855       C  0.49846722  0.75937720  0.25123097    -0.20000
C2856       C  0.49727980  0.74377199  0.23735106    -0.10800
C2857       C  0.48927480  0.79507634  0.26083145    -0.15000
C2858       C  0.49700788  0.79647819  0.27929855    -0.28900
C2859       C  0.48448041  0.73103009  0.20383904    -0.03100
C2860       C  0.49091247  0.71202908  0.20410962    -0.39700
H2861       H  0.46326826  0.76423167  0.20601757     0.13100
H2862       H  0.46530285  0.79099541  0.22981688     0.12700
H2863       H  0.50879102  0.75813062  0.26343847     0.12200
H2864       H  0.50674042  0.73095077  0.23925782     0.12400
H2865       H  0.48354367  0.80856844  0.25401422     0.15200
H2866       H  0.50199400  0.78332171  0.28720654     0.13900
H2867       H  0.47824455  0.73669702  0.19004688     0.11600
H2868       H  0.49634826  0.70534145  0.21775571     0.13600
C2869       C  0.49223723  0.65893624  0.98326037     0.19700
C2870       C  0.47526134  0.65721874  0.99542781    -0.18400
C2871       C  0.47668188  0.65645830  0.01629513    -0.10700
C2872       C  0.49526289  0.65733483  0.02578063     0.22000
C2873       C  0.51224910  0.65886020  0.01362656    -0.20000
C2874       C  0.51083461  0.65959443  0.99276682    -0.10800
C2875       C  0.49771623  0.65774661  0.04807721    -0.15000
C2876       C  0.48314862  0.65413019  0.06158392    -0.28900
C2877       C  0.48963249  0.66041569  0.96097843    -0.03100
C2878       C  0.50448899  0.66301404  0.94756514    -0.39700
H2879       H  0.46068904  0.65672309  0.98875041     0.13100
H2880       H  0.46308672  0.65561714  0.02479286     0.12700
H2881       H  0.52679317  0.65964941  0.02032390     0.12200
H2882       H  0.52444306  0.66083346  0.98435610     0.12400
H2883       H  0.51228622  0.66166253  0.05363350     0.15200
H2884       H  0.46850095  0.64995275  0.05659880     0.13900
H2885       H  0.47455606  0.65987111  0.95538517     0.11600
H2886       H  0.51968688  0.66389727  0.95258317     0.13600
C2887       C  0.57413220  0.72673083  0.09910562     0.19700
C2888       C  0.57528411  0.74748942  0.10029714    -0.18400
C2889       C  0.58745210  0.75803151  0.08716359    -0.10700
C2890       C  0.59855114  0.74791389  0.07270315     0.22000
C2891       C  0.59832198  0.72715943  0.07239306    -0.20000
C2892       C  0.58640556  0.71661692  0.08571966    -0.10800
C2893       C  0.60793856  0.75866830  0.05608143    -0.15000
C2894       C  0.61552547  0.77689532  0.05798967    -0.28900
C2895       C  0.55912144  0.71518005  0.11011054    -0.03100
C2896       C  0.54096764  0.72229038  0.11431246    -0.39700
H2897       H  0.56633634  0.75561553  0.11084227     0.13100
H2898       H  0.58714369  0.77409016  0.08752486     0.12700
H2899       H  0.60673220  0.71915551  0.06129566     0.12200
H2900       H  0.58580076  0.70058124  0.08468447     0.12400
H2901       H  0.60767937  0.75172364  0.04154599     0.15200
H2902       H  0.61742686  0.78343961  0.07256213     0.13900
H2903       H  0.56215421  0.69946576  0.11231872     0.11600
H2904       H  0.53733018  0.73780053  0.11184523     0.13600
C2905       C  0.58360020  0.74055041  0.88726372     0.19700
C2906       C  0.59954834  0.73100431  0.89659028    -0.18400
C2907       C  0.61299750  0.74193117  0.90771331    -0.10700
C2908       C  0.61090541  0.76254437  0.90905816     0.22000
C2909       C  0.59644923  0.77235323  0.89781552    -0.20000
C2910       C  0.58271310  0.76138941  0.88701577    -0.10800
C2911       C  0.62082081  0.77335983  0.92495601    -0.15000
C2912       C  0.61585057  0.76921639  0.94388077    -0.28900
C2913       C  0.56707407  0.72817652  0.88032950    -0.03100
C2914       C  0.54803622  0.73377404  0.88217522    -0.39700
H2915       H  0.60058973  0.71495490  0.89674064     0.13100
H2916       H  0.62415612  0.73423331  0.91635842     0.12700
H2917       H  0.59475297  0.78830721  0.89876904     0.12200
H2918       H  0.57089648  0.76912941  0.87939027     0.12400
H2919       H  0.62912281  0.78671519  0.92121297     0.15200
H2920       H  0.60574480  0.75702767  0.94717392     0.13900
H2921       H  0.57047120  0.71289971  0.87647786     0.11600
H2922       H  0.54411392  0.74881512  0.88629471     0.13600
C2923       C  0.63609110  0.94214915  0.08597995     0.19700
C2924       C  0.65225269  0.92905884  0.08425315    -0.18400
C2925       C  0.65232778  0.91433242  0.06974926    -0.10700
C2926       C  0.63626833  0.91241585  0.05662608     0.22000
C2927       C  0.62075511  0.92623131  0.05762352    -0.20000
C2928       C  0.62067271  0.94094089  0.07213589    -0.10800
C2929       C  0.63485509  0.89613168  0.04195603    -0.15000
C2930       C  0.64490983  0.87894318  0.04351406    -0.28900
C2931       C  0.63452208  0.95690913  0.10218994    -0.03100
C2932       C  0.64403063  0.95487531  0.11960360    -0.39700
H2933       H  0.66492163  0.93010888  0.09396874     0.13100
H2934       H  0.66503403  0.90461568  0.06889813     0.12700
H2935       H  0.60835011  0.92529335  0.04750157     0.12200
H2936       H  0.60820370  0.95103022  0.07292565     0.12400
H2937       H  0.62398506  0.89780260  0.03018922     0.15200
H2938       H  0.65526935  0.87647598  0.05554066     0.13900
H2939       H  0.62410516  0.96906577  0.10028060     0.11600
H2940       H  0.65383998  0.94238972  0.12218329     0.13600
C2941       C  0.75551036  0.73133940  0.99776410     0.19700
C2942       C  0.74090333  0.73467408  0.01231485    -0.18400
C2943       C  0.72718316  0.75018415  0.01030808    -0.10700
C2944       C  0.72741801  0.76267465  0.99341860     0.22000
C2945       C  0.74222772  0.75951638  0.97894945    -0.20000
C2946       C  0.75627150  0.74418959  0.98118462    -0.10800
C2947       C  0.71127011  0.77759742  0.98969109    -0.15000
C2948       C  0.70087301  0.78643463  0.00441351    -0.28900
C2949       C  0.76756367  0.71273542  0.99901504    -0.03100
C2950       C  0.78644138  0.71056437  0.99245603    -0.39700
H2951       H  0.73972112  0.72481851  0.02506878     0.13100
H2952       H  0.71576398  0.75163070  0.02153623     0.12700
H2953       H  0.74266558  0.76867609  0.96564971     0.12200
H2954       H  0.76700921  0.74175293  0.96945580     0.12400
H2955       H  0.70747677  0.78091980  0.97434245     0.15200
H2956       H  0.70527514  0.78390152  0.01973041     0.13900
H2957       H  0.76032268  0.69999233  0.00591838     0.11600
H2958       H  0.79463783  0.72334683  0.98691379     0.13600
C2959       C  0.39310695  0.71485895  0.10643932     0.19700
C2960       C  0.38506061  0.70885153  0.08828323    -0.18400
C2961       C  0.37392173  0.72214522  0.07693570    -0.10700
C2962       C  0.37054760  0.74149320  0.08382738     0.22000
C2963       C  0.37637632  0.74654064  0.10310382    -0.20000
C2964       C  0.38773132  0.73334283  0.11433869    -0.10800
C2965       C  0.36358032  0.75740662  0.07042392    -0.15000
C2966       C  0.37018681  0.75867593  0.05157416    -0.28900
C2967       C  0.40911276  0.70287032  0.11528727    -0.03100
C2968       C  0.42558888  0.71158507  0.12225128    -0.39700
H2969       H  0.38876787  0.69450379  0.08212634     0.13100
H2970       H  0.36896628  0.71771188  0.06233900     0.12700
H2971       H  0.37358371  0.76128024  0.10880153     0.12200
H2972       H  0.39327145  0.73802457  0.12864216     0.12400
H2973       H  0.35558333  0.76978025  0.07691521     0.15200
H2974       H  0.37921967  0.74687869  0.04538759     0.13900
H2975       H  0.40881399  0.68690557  0.11306431     0.11600
H2976       H  0.42645809  0.72766271  0.12317795     0.13600
C2977       C  0.41070228  0.74685978  0.89440876     0.19700
C2978       C  0.41204131  0.76718820  0.89843400    -0.18400
C2979       C  0.39822215  0.77609679  0.91102709    -0.10700
C2980       C  0.38293140  0.76467815  0.91964581     0.22000
C2981       C  0.38036743  0.74496794  0.91382438    -0.20000
C2982       C  0.39394203  0.73618622  0.90097469    -0.10800
C2983       C  0.37256954  0.77156550  0.93758424    -0.15000
C2984       C  0.36772113  0.79056145  0.94042927    -0.28900
C2985       C  0.42814343  0.73661772  0.88599074    -0.03100
C2986       C  0.43303310  0.71828356  0.89221622    -0.39700
H2987       H  0.42470906  0.77573740  0.89330713     0.13100
H2988       H  0.40063863  0.79131562  0.91547292     0.12700
H2989       H  0.36857433  0.73600842  0.92021967     0.12200
H2990       H  0.39201540  0.72069114  0.89731336     0.12400
H2991       H  0.37066215  0.76092561  0.94969187     0.15200
H2992       H  0.36812088  0.80117306  0.92819348     0.13900
H2993       H  0.43830719  0.74499546  0.87654310     0.11600
H2994       H  0.42341508  0.71020622  0.90244391     0.13600
C2995       C  0.35841519  0.92921576  0.11545438     0.19700
C2996       C  0.34471087  0.91372945  0.11331793    -0.18400
C2997       C  0.34704119  0.89969806  0.09828387    -0.10700
C2998       C  0.36338957  0.90071918  0.08520670     0.22000
C2999       C  0.37707813  0.91619396  0.08735197    -0.20000
C3000       C  0.37477823  0.93017681  0.10238647    -0.10800
C3001       C  0.36641627  0.88636088  0.06882912    -0.15000
C3002       C  0.35830589  0.86814575  0.06873145    -0.28900
C3003       C  0.35563439  0.94357601  0.13190364    -0.03100
C3004       C  0.36419781  0.96158250  0.13194070    -0.39700
H3005       H  0.33203167  0.91259764  0.12319969     0.13100
H3006       H  0.33579317  0.88837817  0.09681180     0.12700
H3007       H  0.38979463  0.91731409  0.07750952     0.12200
H3008       H  0.38613907  0.94137756  0.10387858     0.12400
H3009       H  0.37589807  0.89090816  0.05648886     0.15200
H3010       H  0.34933757  0.86302072  0.08117828     0.13900
H3011       H  0.34643743  0.93908322  0.14446364     0.11600
H3012       H  0.37296711  0.96657784  0.11931380     0.13600
C3013       C  0.26546421  0.76887977  0.00525723     0.19700
C3014       C  0.25376943  0.76251219  0.98928719    -0.18400
C3015       C  0.23994994  0.74707123  0.99171453    -0.10700
C3016       C  0.23769434  0.73729302  0.01021245     0.22000
C3017       C  0.24901218  0.74404978  0.02630042    -0.20000
C3018       C  0.26275592  0.75951850  0.02389100    -0.10800
C3019       C  0.22439799  0.71965519  0.01335103    -0.15000
C3020       C  0.21693723  0.70857670  0.99849693    -0.28900
C3021       C  0.28154175  0.78385277  0.00154325    -0.03100
C3022       C  0.29014138  0.79449784  0.01607062    -0.39700
H3023       H  0.25551335  0.76935875  0.97476138     0.13100
H3024       H  0.23126221  0.74285983  0.97896568     0.12700
H3025       H  0.24768744  0.73689254  0.04071874     0.12200
H3026       H  0.27175915  0.76344431  0.03652562     0.12400
H3027       H  0.22191458  0.71468812  0.02856198     0.15200
H3028       H  0.21994953  0.71260894  0.98316477     0.13900
H3029       H  0.28723580  0.78528120  0.98646862     0.11600
H3030       H  0.28437830  0.79351031  0.03111442     0.13600
C3031       C  0.51752513  0.82803586  0.00322067     0.19700
C3032       C  0.50478648  0.81271378  0.00972105    -0.18400
C3033       C  0.48415106  0.81541262  0.01081910    -0.10700
C3034       C  0.47534375  0.83359518  0.00523647     0.22000
C3035       C  0.48807810  0.84909733  0.99910760    -0.20000
C3036       C  0.50881077  0.84639107  0.99801067    -0.10800
C3037       C  0.45314666  0.83690867  0.00591487    -0.15000
C3038       C  0.43976380  0.82190907  0.00543729    -0.28900
C3039       C  0.53952605  0.82382571  0.00203189    -0.03100
C3040       C  0.55400742  0.83721689  0.99771497    -0.39700
H3041       H  0.51084642  0.79845261  0.01406160     0.13100
H3042       H  0.47526593  0.80318667  0.01633806     0.12700
H3043       H  0.48192936  0.86334776  0.99486755     0.12200
H3044       H  0.51780154  0.85869907  0.99288512     0.12400
H3045       H  0.44772669  0.85207894  0.00611757     0.15200
H3046       H  0.44518324  0.80683350  0.00413758     0.13900
H3047       H  0.54407285  0.80865876  0.00516997     0.11600
H3048       H  0.55016245  0.85258799  0.99489884     0.13600
C3049       C  0.61026781  0.86835710  0.57897512     0.19700
C3050       C  0.60993892  0.88390646  0.59272310    -0.18400
C3051       C  0.59580384  0.88440101  0.60786316    -0.10700
C3052       C  0.58155507  0.86933644  0.60979747     0.22000
C3053       C  0.58170525  0.85368285  0.59603087    -0.20000
C3054       C  0.59593793  0.85319298  0.58074722    -0.10800
C3055       C  0.56665987  0.87123430  0.62603819    -0.15000
C3056       C  0.55442287  0.85672762  0.63257599    -0.28900
C3057       C  0.62573520  0.86910969  0.56312842    -0.03100
C3058       C  0.62942798  0.85484328  0.54965513    -0.39700
H3059       H  0.62069488  0.89583397  0.59176047     0.13100
H3060       H  0.59602975  0.89669595  0.61815066     0.12700
H3061       H  0.57073290  0.84199192  0.59672822     0.12200
H3062       H  0.59542703  0.84106261  0.57035495     0.12400
H3063       H  0.56615237  0.88551774  0.63343754     0.15200
H3064       H  0.55481837  0.84205964  0.62606508     0.13900
H3065       H  0.63489508  0.88239605  0.56272990     0.11600
H3066       H  0.62082592  0.84125451  0.54944785     0.13600
C3067       C  0.39529894  0.85701154  0.58876923     0.19700
C3068       C  0.40252513  0.84061085  0.59942091    -0.18400
C3069       C  0.41706844  0.84314854  0.61391841    -0.10700
C3070       C  0.42435574  0.86223187  0.61808510     0.22000
C3071       C  0.41649924  0.87866800  0.60800069    -0.20000
C3072       C  0.40214378  0.87612301  0.59345326    -0.10800
C3073       C  0.43958700  0.86581519  0.63330062    -0.15000
C3074       C  0.45345314  0.85246699  0.63848663    -0.28900
C3075       C  0.38037416  0.85402054  0.57307710    -0.03100
C3076       C  0.37974743  0.86581808  0.55693350    -0.39700
H3077       H  0.39712135  0.82581158  0.59630197     0.13100
H3078       H  0.42233912  0.83024656  0.62197089     0.12700
H3079       H  0.42161115  0.89353823  0.61128029     0.12200
H3080       H  0.39626557  0.88916556  0.58608203     0.12400
H3081       H  0.43989909  0.88051615  0.63985002     0.15200
H3082       H  0.45405238  0.83802576  0.63146368     0.13900
H3083       H  0.37003682  0.84171468  0.57463764     0.11600
H3084       H  0.39081870  0.87737416  0.55481487     0.13600
C3085       C  0.49162573  0.75194786  0.78578936     0.19700
C3086       C  0.49802932  0.74751521  0.76629630    -0.18400
C3087       C  0.50044694  0.76284614  0.75194781    -0.10700
C3088       C  0.49659329  0.78279001  0.75695636     0.22000
C3089       C  0.48989122  0.78686154  0.77626862    -0.20000
C3090       C  0.48739542  0.77179221  0.79032540    -0.10800
C3091       C  0.49991257  0.80033006  0.74352824    -0.15000
C3092       C  0.50317056  0.80052337  0.72363071    -0.28900
C3093       C  0.48971335  0.73724306  0.80252930    -0.03100
C3094       C  0.49397779  0.71760169  0.80243476    -0.39700
H3095       H  0.50144815  0.73241771  0.76217628     0.13100
H3096       H  0.50573646  0.75911667  0.73724039     0.12700
H3097       H  0.48671427  0.80196362  0.78069320     0.12200
H3098       H  0.48241889  0.77584169  0.80508957     0.12400
H3099       H  0.49902133  0.81460250  0.75090152     0.15200
H3100       H  0.50366177  0.78678578  0.71533506     0.13900
H3101       H  0.48494030  0.74354075  0.81658994     0.11600
H3102       H  0.49849497  0.71030548  0.78883083     0.13600
C3103       C  0.61002350  0.15181454  0.56804103     0.19700
C3104       C  0.61390939  0.14845241  0.58822759    -0.18400
C3105       C  0.59972627  0.15307967  0.60260050    -0.10700
C3106       C  0.58117017  0.16044818  0.59694497     0.22000
C3107       C  0.57729225  0.16413642  0.57675098    -0.20000
C3108       C  0.59171447  0.16000966  0.56237812    -0.10800
C3109       C  0.56564055  0.16241752  0.61228179    -0.15000
C3110       C  0.54775349  0.15413642  0.60975835    -0.28900
C3111       C  0.62489521  0.14561579  0.55317994    -0.03100
C3112       C  0.62864261  0.15617912  0.53660878    -0.39700
H3113       H  0.62791448  0.14210266  0.59285699     0.13100
H3114       H  0.60289791  0.15003093  0.61810384     0.12700
H3115       H  0.56303254  0.16985058  0.57211545     0.12200
H3116       H  0.58826827  0.16247549  0.54685239     0.12400
H3117       H  0.57003876  0.16732593  0.62697928     0.15200
H3118       H  0.54414979  0.14727634  0.59565265     0.13900
H3119       H  0.63379454  0.13257765  0.55653800     0.11600
H3120       H  0.62105066  0.17016993  0.53400394     0.13600
C3121       C  0.38289721  0.14313690  0.57472431     0.19700
C3122       C  0.39239390  0.12644137  0.58276934    -0.18400
C3123       C  0.40798141  0.12862388  0.59605597    -0.10700
C3124       C  0.41435084  0.14763040  0.60165169     0.22000
C3125       C  0.40441437  0.16436180  0.59422765    -0.20000
C3126       C  0.38885967  0.16218183  0.58073568    -0.10800
C3127       C  0.43095451  0.15016187  0.61565446    -0.15000
C3128       C  0.44636881  0.13757570  0.61591616    -0.28900
C3129       C  0.36648776  0.13978452  0.56066486    -0.03100
C3130       C  0.36021047  0.15317731  0.54715718    -0.39700
H3131       H  0.38781478  0.11161021  0.57865301     0.13100
H3132       H  0.41483644  0.11540231  0.60213070     0.12700
H3133       H  0.40885998  0.17912200  0.59869523     0.12200
H3134       H  0.38141640  0.17535829  0.57534047     0.12400
H3135       H  0.43062398  0.16273208  0.62567548     0.15200
H3136       H  0.44730850  0.12576746  0.60505030     0.13900
H3137       H  0.35981289  0.12508693  0.56093847     0.11600
H3138       H  0.36704115  0.16772828  0.54597150     0.13600
C3139       C  0.50043237  0.25784045  0.75557673     0.19700
C3140       C  0.48682145  0.24250892  0.75200484    -0.18400
C3141       C  0.48812382  0.23099471  0.73481956    -0.10700
C3142       C  0.50334908  0.23428017  0.72080340     0.22000
C3143       C  0.51677679  0.24989288  0.72414319    -0.20000
C3144       C  0.51521572  0.26173110  0.74123158    -0.10800
C3145       C  0.50690599  0.21995051  0.70427830    -0.15000
C3146       C  0.49214639  0.20956047  0.69571817    -0.28900
C3147       C  0.50020473  0.26749507  0.77547739    -0.03100
C3148       C  0.50655685  0.28610547  0.77928618    -0.39700
H3149       H  0.47546351  0.23899192  0.76290915     0.13100
H3150       H  0.47786065  0.21876730  0.73317474     0.12700
H3151       H  0.52884133  0.25256315  0.71378876     0.12200
H3152       H  0.52622513  0.27313326  0.74371618     0.12400
H3153       H  0.52217832  0.21677846  0.70023891     0.15200
H3154       H  0.47688473  0.21333461  0.69921183     0.13900
H3155       H  0.49432355  0.25864969  0.78773885     0.11600
H3156       H  0.51119045  0.29580996  0.76717109     0.13600
C3157       C  0.50770081  0.02550855  0.67426820     0.19700
C3158       C  0.49430582  0.01323730  0.68470760    -0.18400
C3159       C  0.49603223  0.99246125  0.68429439    -0.10700
C3160       C  0.51147505  0.98325961  0.67362460     0.22000
C3161       C  0.52507495  0.99556357  0.66340430    -0.20000
C3162       C  0.52312747  0.01639101  0.66353515    -0.10800
C3163       C  0.51440653  0.96108657  0.67383034    -0.15000
C3164       C  0.49953068  0.94789507  0.67692415    -0.28900
C3165       C  0.50579189  0.04763953  0.67600871    -0.03100
C3166       C  0.51098371  0.06078441  0.66158146    -0.39700
H3167       H  0.48244379  0.01978296  0.69334674     0.13100
H3168       H  0.48557503  0.98372349  0.69290113     0.12700
H3169       H  0.53730001  0.98902756  0.65529446     0.12200
H3170       H  0.53402616  0.02532436  0.65570498     0.12400
H3171       H  0.52925103  0.95548358  0.67110975     0.15200
H3172       H  0.48450140  0.95336532  0.67855609     0.13900
H3173       H  0.49882233  0.05327232  0.68941874     0.11600
H3174       H  0.51652850  0.05532394  0.64747365     0.13600
C3175       C  0.43671439  0.10603649  0.75044586     0.19700
C3176       C  0.44084216  0.10332447  0.77066296    -0.18400
C3177       C  0.42854036  0.09146088  0.78246849    -0.10700
C3178       C  0.41217257  0.08180019  0.77412559     0.22000
C3179       C  0.40733598  0.08548072  0.75415008    -0.20000
C3180       C  0.41956530  0.09743583  0.74237412    -0.10800
C3181       C  0.40147707  0.06700817  0.78639069    -0.15000
C3182       C  0.39191766  0.05129644  0.77872547    -0.28900
C3183       C  0.45185825  0.11541196  0.73762838    -0.03100
C3184       C  0.44760822  0.12384838  0.72005863    -0.39700
H3185       H  0.45402067  0.10976597  0.77713591     0.13100
H3186       H  0.43244006  0.08896227  0.79789876     0.12700
H3187       H  0.39446812  0.07877451  0.74740355     0.12200
H3188       H  0.41611831  0.09893743  0.72674193     0.12400
H3189       H  0.40338657  0.06793623  0.80240379     0.15200
H3190       H  0.39025442  0.04959138  0.76279496     0.13900
H3191       H  0.46721807  0.11427797  0.74233454     0.11600
H3192       H  0.43235552  0.12649839  0.71571366     0.13600
C3193       C  0.41458209  0.88518827  0.74792760     0.19700
C3194       C  0.39791576  0.89430515  0.73950792    -0.18400
C3195       C  0.38411761  0.90377533  0.75163841    -0.10700
C3196       C  0.38691104  0.90410728  0.77231877     0.22000
C3197       C  0.40189174  0.89247878  0.78082083    -0.20000
C3198       C  0.41573227  0.88308225  0.76869418    -0.10800
C3199       C  0.37724455  0.91907701  0.78490869    -0.15000
C3200       C  0.37448725  0.93768263  0.77811559    -0.28900
C3201       C  0.43137827  0.88023039  0.73478714    -0.03100
C3202       C  0.45031291  0.88158532  0.74079679    -0.39700
H3203       H  0.39645596  0.89557164  0.72351283     0.13100
H3204       H  0.37216421  0.91201546  0.74477658     0.12700
H3205       H  0.40400982  0.89218764  0.79677719     0.12200
H3206       H  0.42789888  0.87522030  0.77560542     0.12400
H3207       H  0.37640490  0.91608710  0.80079111     0.15200
H3208       H  0.37610468  0.94112770  0.76239874     0.13900
H3209       H  0.42822320  0.87770946  0.71916817     0.11600
H3210       H  0.45391478  0.88449533  0.75620896     0.13600
C3211       C  0.35212242  0.10864199  0.92588890     0.19700
C3212       C  0.36282477  0.10776610  0.90802836    -0.18400
C3213       C  0.35975461  0.09234047  0.89468378    -0.10700
C3214       C  0.34622576  0.07697675  0.89908665     0.22000
C3215       C  0.33489819  0.07818962  0.91661011    -0.20000
C3216       C  0.33785047  0.09385505  0.92997543    -0.10800
C3217       C  0.34448488  0.05939577  0.88581474    -0.15000
C3218       C  0.36056264  0.05245960  0.87624823    -0.28900
C3219       C  0.35719135  0.12465223  0.94009821    -0.03100
C3220       C  0.34452995  0.13223667  0.95355317    -0.39700
H3221       H  0.37373355  0.11905992  0.90440271     0.13100
H3222       H  0.36818719  0.09240044  0.88095814     0.12700
H3223       H  0.32428687  0.06664624  0.92029372     0.12200
H3224       H  0.32948928  0.09394986  0.94373296     0.12400
H3225       H  0.33036621  0.05176125  0.88455055     0.15200
H3226       H  0.37478928  0.05950724  0.87890667     0.13900
H3227       H  0.37188040  0.13117642  0.93868722     0.11600
H3228       H  0.32937617  0.12685034  0.95441381     0.13600
C3229       C  0.35262706  0.91711893  0.95273386     0.19700
C3230       C  0.36868310  0.92729956  0.94414164    -0.18400
C3231       C  0.36572699  0.94059302  0.92840069    -0.10700
C3232       C  0.34657529  0.94413599  0.92096337     0.22000
C3233       C  0.33031751  0.93537591  0.93066910    -0.20000
C3234       C  0.33328472  0.92189221  0.94638124    -0.10800
C3235       C  0.34376835  0.95589105  0.90236257    -0.15000
C3236       C  0.35602909  0.95294044  0.88688361    -0.28900
C3237       C  0.35686758  0.90090257  0.96730435    -0.03100
C3238       C  0.34483143  0.88514867  0.96986463    -0.39700
H3239       H  0.38367737  0.92425462  0.94897336     0.13100
H3240       H  0.37851742  0.94767943  0.92162140     0.12700
H3241       H  0.31540717  0.93820938  0.92547131     0.12200
H3242       H  0.32044457  0.91498687  0.95319879     0.12400
H3243       H  0.33159351  0.96636204  0.90122018     0.15200
H3244       H  0.36738973  0.94157594  0.88827558     0.13900
H3245       H  0.37127491  0.90083242  0.97446857     0.11600
H3246       H  0.33082304  0.88451974  0.96204041     0.13600
C3247       C  0.25156897  0.99171524  0.72663828     0.19700
C3248       C  0.27182911  0.98904535  0.72264701    -0.18400
C3249       C  0.28605051  0.99020986  0.73761181    -0.10700
C3250       C  0.28085790  0.99402144  0.75748889     0.22000
C3251       C  0.26049273  0.99646446  0.76191330    -0.20000
C3252       C  0.24597048  0.99536041  0.74661009    -0.10800
C3253       C  0.29784541  0.99569606  0.77201491    -0.15000
C3254       C  0.29774167  0.99746636  0.79222762    -0.28900
C3255       C  0.23774793  0.99059748  0.70899500    -0.03100
C3256       C  0.21789644  0.99398076  0.70825598    -0.39700
H3257       H  0.27688019  0.98617963  0.70762912     0.13100
H3258       H  0.30143741  0.98818612  0.73344053     0.12700
H3259       H  0.25580275  0.99945934  0.77699574     0.12200
H3260       H  0.23053141  0.99744700  0.75043073     0.12400
H3261       H  0.31232002  0.99507867  0.76493208     0.15200
H3262       H  0.28384810  0.99781882  0.80037937     0.13900
H3263       H  0.24494797  0.98704518  0.69498514     0.11600
H3264       H  0.20981946  0.99763084  0.72171734     0.13600
C3265       C  0.57404578  0.12316138  0.74749406     0.19700
C3266       C  0.57036412  0.12108394  0.76791803    -0.18400
C3267       C  0.58353117  0.11059361  0.77992873    -0.10700
C3268       C  0.60034120  0.10170344  0.77157529     0.22000
C3269       C  0.60507446  0.10544727  0.75153528    -0.20000
C3270       C  0.59196530  0.11604494  0.73952930    -0.10800
C3271       C  0.61085632  0.08656488  0.78343014    -0.15000
C3272       C  0.61824991  0.07005678  0.77511173    -0.28900
C3273       C  0.55758208  0.12947002  0.73459168    -0.03100
C3274       C  0.56003600  0.13606922  0.71590183    -0.39700
H3275       H  0.55666767  0.12649961  0.77435032     0.13100
H3276       H  0.57973006  0.10805220  0.79540520     0.12700
H3277       H  0.61831581  0.09930710  0.74485849     0.12200
H3278       H  0.59524004  0.11723152  0.72381442     0.12400
H3279       H  0.60961877  0.08742494  0.79951704     0.15200
H3280       H  0.61894895  0.06854032  0.75907774     0.13900
H3281       H  0.54262710  0.12724864  0.74030795     0.11600
H3282       H  0.57459427  0.14001880  0.71019248     0.13600
C3283       C  0.62267263  0.92028430  0.75891227     0.19700
C3284       C  0.61378698  0.90343190  0.76740551    -0.18400
C3285       C  0.60277198  0.89066033  0.75558803    -0.10700
C3286       C  0.60059740  0.89477237  0.73519758     0.22000
C3287       C  0.61222282  0.90962595  0.72629399    -0.20000
C3288       C  0.62327064  0.92237639  0.73810705    -0.10800
C3289       C  0.58397025  0.88664529  0.72372783    -0.15000
C3290       C  0.56625532  0.88337710  0.73233815    -0.28900
C3291       C  0.62810174  0.93669737  0.77215115    -0.03100
C3292       C  0.62562474  0.95572858  0.76664446    -0.39700
H3293       H  0.61370735  0.90122095  0.78337934     0.13100
H3294       H  0.59471316  0.87860661  0.76265400     0.12700
H3295       H  0.61119562  0.91264011  0.71048738     0.12200
H3296       H  0.63097042  0.93467557  0.73107135     0.12400
H3297       H  0.58521541  0.88666229  0.70760732     0.15200
H3298       H  0.56450707  0.88383208  0.74837520     0.13900
H3299       H  0.63139829  0.93315968  0.78758730     0.11600
H3300       H  0.62203514  0.95975421  0.75143428     0.13600
C3301       C  0.64465690  0.90059124  0.92335510     0.19700
C3302       C  0.64823704  0.92086591  0.92624692    -0.18400
C3303       C  0.64803937  0.93408554  0.91013185    -0.10700
C3304       C  0.64382859  0.92722231  0.89091232     0.22000
C3305       C  0.64035041  0.90694024  0.88803414    -0.20000
C3306       C  0.64094527  0.89368248  0.90406270    -0.10800
C3307       C  0.64115910  0.94104363  0.87397132    -0.15000
C3308       C  0.65142333  0.95802342  0.87193621    -0.28900
C3309       C  0.64277741  0.88726090  0.94081070    -0.03100
C3310       C  0.64798662  0.86804423  0.94029207    -0.39700
H3311       H  0.65081808  0.92651240  0.94104571     0.13100
H3312       H  0.65026672  0.94973982  0.91288267     0.12700
H3313       H  0.63681776  0.90140501  0.87338970     0.12200
H3314       H  0.63757873  0.87820198  0.90146996     0.12400
H3315       H  0.63054593  0.93690558  0.86261036     0.15200
H3316       H  0.66314114  0.96161862  0.88232469     0.13900
H3317       H  0.63670107  0.89341882  0.95442219     0.11600
H3318       H  0.65552082  0.86212625  0.92732942     0.13600
C3319       C  0.63801983  0.11498340  0.92514151     0.19700
C3320       C  0.62070515  0.11002275  0.91491659    -0.18400
C3321       C  0.62068554  0.09474136  0.90120730    -0.10700
C3322       C  0.63803988  0.08409343  0.89712037     0.22000
C3323       C  0.65555000  0.08893673  0.90735361    -0.20000
C3324       C  0.65552759  0.10430891  0.92131911    -0.10800
C3325       C  0.63665270  0.06839468  0.88189708    -0.15000
C3326       C  0.65186314  0.05815512  0.87400559    -0.28900
C3327       C  0.63682024  0.13185731  0.93900173    -0.03100
C3328       C  0.64940889  0.13548110  0.95401540    -0.39700
H3329       H  0.60703148  0.11802577  0.91754760     0.13100
H3330       H  0.60698203  0.09137971  0.89358113     0.12700
H3331       H  0.66921758  0.08103194  0.90468443     0.12200
H3332       H  0.66922617  0.10798871  0.92873902     0.12400
H3333       H  0.62182217  0.06552178  0.87633244     0.15200
H3334       H  0.66695668  0.06028722  0.87902366     0.13900
H3335       H  0.62402965  0.14147936  0.93713571     0.11600
H3336       H  0.66214961  0.12604443  0.95668553     0.13600
C3337       C  0.72606481  0.01275264  0.75320668     0.19700
C3338       C  0.72688340  0.02547553  0.73662069    -0.18400
C3339       C  0.74269893  0.02474453  0.72322375    -0.10700
C3340       C  0.75800293  0.01086406  0.72557968     0.22000
C3341       C  0.75748897  0.99810960  0.74231114    -0.20000
C3342       C  0.74169499  0.99917048  0.75614314    -0.10800
C3343       C  0.77383539  0.01056724  0.70997044    -0.15000
C3344       C  0.78359607  0.99423598  0.70369464    -0.28900
C3345       C  0.70763988  0.01316679  0.76558392    -0.03100
C3346       C  0.70610325  0.00859073  0.78515234    -0.39700
H3347       H  0.71505657  0.03599774  0.73387745     0.13100
H3348       H  0.74266174  0.03478493  0.71055589     0.12700
H3349       H  0.76918462  0.98738843  0.74468982     0.12200
H3350       H  0.74136807  0.98895236  0.76863833     0.12400
H3351       H  0.77564619  0.02422224  0.70142970     0.15200
H3352       H  0.78129891  0.98011137  0.71124666     0.13900
H3353       H  0.69443908  0.01840415  0.75797272     0.11600
H3354       H  0.71915513  0.00432453  0.79353250     0.13600
C3355       C  0.52337465  0.99510660  0.83414723     0.19700
C3356       C  0.51144803  0.97814835  0.83144422    -0.18400
C3357       C  0.49060509  0.97913761  0.83266669    -0.10700
C3358       C  0.48094071  0.99724572  0.83666413     0.22000
C3359       C  0.49285882  0.01412037  0.83955262    -0.20000
C3360       C  0.51363085  0.01314343  0.83834533    -0.10800
C3361       C  0.45870352  0.99968278  0.83724707    -0.15000
C3362       C  0.44518319  0.98485078  0.83597135    -0.28900
C3363       C  0.54565350  0.99333157  0.83195142    -0.03100
C3364       C  0.55864870  0.00846419  0.83446852    -0.39700
H3365       H  0.51829117  0.96400984  0.82814868     0.13100
H3366       H  0.48226946  0.96570352  0.83013865     0.12700
H3367       H  0.48603091  0.02833098  0.84260105     0.12200
H3368       H  0.52174226  0.02675364  0.84051946     0.12400
H3369       H  0.45314937  0.01476290  0.83850822     0.15200
H3370       H  0.45007597  0.96958304  0.83487962     0.13900
H3371       H  0.55156480  0.97897691  0.82769813     0.11600
H3372       H  0.55322617  0.02294670  0.83866030     0.13600
C3373       C  0.85292041  0.61255330  0.58328802     0.19700
C3374       C  0.83682937  0.60196415  0.59131269    -0.18400
C3375       C  0.83998941  0.58623214  0.60472262    -0.10700
C3376       C  0.85937956  0.58101504  0.61050269     0.22000
C3377       C  0.87533720  0.59216415  0.60297214    -0.20000
C3378       C  0.87218857  0.60770785  0.58955223    -0.10800
C3379       C  0.86386335  0.56467610  0.62480657    -0.15000
C3380       C  0.85106751  0.55029001  0.63040876    -0.28900
C3381       C  0.84969366  0.62846389  0.56820879    -0.03100
C3382       C  0.86220920  0.63037022  0.55274772    -0.39700
H3383       H  0.82183987  0.60562267  0.58690287     0.13100
H3384       H  0.82721328  0.57844710  0.61060263     0.12700
H3385       H  0.89038619  0.58876284  0.60739938     0.12200
H3386       H  0.88487983  0.61599791  0.58412065     0.12400
H3387       H  0.87875336  0.56441997  0.63092448     0.15200
H3388       H  0.83620088  0.54976266  0.62436781     0.13900
H3389       H  0.83694172  0.63820065  0.56954927     0.11600
H3390       H  0.87404593  0.61955847  0.55108189     0.13600
C3391       C  0.85292809  0.40481406  0.56823347     0.19700
C3392       C  0.86938710  0.41498446  0.57572645    -0.18400
C3393       C  0.86709456  0.42946753  0.59022063    -0.10700
C3394       C  0.84822737  0.43399667  0.59788534     0.22000
C3395       C  0.83156047  0.42477825  0.58957607    -0.20000
C3396       C  0.83385622  0.41017395  0.57494121    -0.10800
C3397       C  0.84605669  0.44776445  0.61496960    -0.15000
C3398       C  0.85972565  0.44796717  0.62947274    -0.28900
C3399       C  0.85679601  0.38777937  0.55483177    -0.03100
C3400       C  0.84323819  0.37883819  0.54330348    -0.39700
H3401       H  0.88421393  0.41138189  0.57067053     0.13100
H3402       H  0.88021315  0.43688693  0.59567061     0.12700
H3403       H  0.81685306  0.42821223  0.59505678     0.12200
H3404       H  0.82079059  0.40260922  0.56963863     0.12400
H3405       H  0.83315643  0.45734913  0.61583235     0.15200
H3406       H  0.87190652  0.43744721  0.62887317     0.13900
H3407       H  0.87192952  0.38224775  0.55449634     0.11600
H3408       H  0.82823635  0.38452075  0.54234148     0.13600
C3409       C  0.74273274  0.49606265  0.77309075     0.19700
C3410       C  0.74728853  0.48147522  0.75885485    -0.18400
C3411       C  0.76309087  0.48409657  0.74523062    -0.10700
C3412       C  0.77504265  0.50123837  0.74581557     0.22000
C3413       C  0.77032497  0.51586578  0.75985552    -0.20000
C3414       C  0.75439945  0.51343714  0.77315582    -0.10800
C3415       C  0.79393146  0.50340369  0.73408211    -0.15000
C3416       C  0.79750305  0.49603038  0.71569780    -0.28900
C3417       C  0.72725118  0.49211197  0.78892127    -0.03100
C3418       C  0.71759302  0.50677856  0.79862221    -0.39700
H3419       H  0.73883536  0.46780386  0.75853703     0.13100
H3420       H  0.76652777  0.47230178  0.73494888     0.12700
H3421       H  0.77940116  0.52908980  0.76092649     0.12200
H3422       H  0.75198099  0.52481860  0.78414826     0.12400
H3423       H  0.80562139  0.51193977  0.74109584     0.15200
H3424       H  0.78570899  0.48863661  0.70768490     0.13900
H3425       H  0.72448617  0.47679674  0.79329866     0.11600
H3426       H  0.71991112  0.52199213  0.79370305     0.13600
C3427       C  0.14488590  0.61184838  0.57518423     0.19700
C3428       C  0.14285326  0.61440473  0.59578323    -0.18400
C3429       C  0.14415719  0.59815555  0.60880078    -0.10700
C3430       C  0.14712065  0.57892546  0.60137634     0.22000
C3431       C  0.14924363  0.57639258  0.58077912    -0.20000
C3432       C  0.14835598  0.59270080  0.56779590    -0.10800
C3433       C  0.14596232  0.56111184  0.61446957    -0.15000
C3434       C  0.15160884  0.56095844  0.63365040    -0.28900
C3435       C  0.14162691  0.62907716  0.56171519    -0.03100
C3436       C  0.15100207  0.63142689  0.54415184    -0.39700
H3437       H  0.13992935  0.62899267  0.60178924     0.13100
H3438       H  0.14192434  0.60056171  0.62453986     0.12700
H3439       H  0.15124375  0.56168430  0.57469331     0.12200
H3440       H  0.14951331  0.59018087  0.55196042     0.12400
H3441       H  0.14015023  0.54756983  0.60799989     0.15200
H3442       H  0.15876697  0.57389540  0.63995609     0.13900
H3443       H  0.13156916  0.64060219  0.56677220     0.11600
H3444       H  0.16241930  0.62100682  0.53967161     0.13600
C3445       C  0.15244605  0.40664423  0.56202922     0.19700
C3446       C  0.16061096  0.40526441  0.58112227    -0.18400
C3447       C  0.15833733  0.42069903  0.59470319    -0.10700
C3448       C  0.14801445  0.43811309  0.58939666     0.22000
C3449       C  0.14028073  0.43973590  0.57014111    -0.20000
C3450       C  0.14262145  0.42430816  0.55651400    -0.10800
C3451       C  0.14385697  0.45410747  0.60398986    -0.15000
C3452       C  0.15498213  0.45692785  0.62025007    -0.28900
C3453       C  0.15381560  0.38904771  0.54877166    -0.03100
C3454       C  0.14138479  0.38603304  0.53352141    -0.39700
H3455       H  0.16821249  0.39187804  0.58581392     0.13100
H3456       H  0.16402763  0.41848768  0.60955189     0.12700
H3457       H  0.13228949  0.45295573  0.56565648     0.12200
H3458       H  0.13663850  0.42637709  0.54177090     0.12400
H3459       H  0.13091713  0.46338965  0.60157705     0.15200
H3460       H  0.16832678  0.44824546  0.62245855     0.13900
H3461       H  0.16423590  0.37739413  0.55273927     0.11600
H3462       H  0.13015519  0.39696953  0.52995994     0.13600
C3463       C  0.23343682  0.50169630  0.73664317     0.19700
C3464       C  0.24680916  0.51681214  0.74188853    -0.18400
C3465       C  0.26197069  0.51334548  0.75581169    -0.10700
C3466       C  0.26404029  0.49460271  0.76508468     0.22000
C3467       C  0.25078033  0.47948747  0.75963565    -0.20000
C3468       C  0.23570194  0.48293641  0.74575564    -0.10800
C3469       C  0.27886490  0.49013083  0.78115703    -0.15000
C3470       C  0.29105809  0.50348502  0.78976821    -0.28900
C3471       C  0.21659184  0.50628583  0.72275951    -0.03100
C3472       C  0.20637328  0.49223224  0.71283113    -0.39700
H3473       H  0.24542406  0.53145707  0.73529384     0.13100
H3474       H  0.27175377  0.52550491  0.75933702     0.12700
H3475       H  0.25176349  0.46493891  0.76654228     0.12200
H3476       H  0.22549156  0.47095757  0.74279729     0.12400
H3477       H  0.27868568  0.47512987  0.78724213     0.15200
H3478       H  0.29131484  0.51875657  0.78460251     0.13900
H3479       H  0.21222444  0.52171081  0.72101261     0.11600
H3480       H  0.21100920  0.47686408  0.71391996     0.13600
C3481       C  0.98196543  0.50635414  0.67076999     0.19700
C3482       C  0.99470318  0.51790339  0.65870458    -0.18400
C3483       C  0.01547889  0.51624889  0.66024403    -0.10700
C3484       C  0.02410474  0.50321311  0.67421748     0.22000
C3485       C  0.01135195  0.49186571  0.68641400    -0.20000
C3486       C  0.99065490  0.49328638  0.68466794    -0.10800
C3487       C  0.04610165  0.50189047  0.67758261    -0.15000
C3488       C  0.06029436  0.50640412  0.66394206    -0.28900
C3489       C  0.95982709  0.50902553  0.66941670    -0.03100
C3490       C  0.94668915  0.49448417  0.67403615    -0.39700
H3491       H  0.98854403  0.52831746  0.64806055     0.13100
H3492       H  0.02469427  0.52562354  0.65089662     0.12700
H3493       H  0.01744783  0.48190556  0.69752177     0.12200
H3494       H  0.98152563  0.48455433  0.69469993     0.12400
H3495       H  0.05081642  0.49626930  0.69198680     0.15200
H3496       H  0.05601152  0.51089328  0.64904498     0.13900
H3497       H  0.95424923  0.52327185  0.66426218     0.11600
H3498       H  0.95231073  0.47991453  0.67806285     0.13600
C3499       C  0.07563152  0.37776715  0.72890265     0.19700
C3500       C  0.07241185  0.38414622  0.70926995    -0.18400
C3501       C  0.08609575  0.39667296  0.69979697    -0.10700
C3502       C  0.10281545  0.40331351  0.71010938     0.22000
C3503       C  0.10686633  0.39568465  0.72907221    -0.20000
C3504       C  0.09343837  0.38296244  0.73839526    -0.10800
C3505       C  0.11404828  0.42047890  0.70247379    -0.15000
C3506       C  0.11566721  0.43677954  0.71372748    -0.28900
C3507       C  0.05894076  0.36927858  0.74047414    -0.03100
C3508       C  0.06176413  0.35872348  0.75720520    -0.39700
H3509       H  0.05875234  0.38044242  0.70174176     0.13100
H3510       H  0.08278125  0.40250584  0.68513660     0.12700
H3511       H  0.11977718  0.40065235  0.73718123     0.12200
H3512       H  0.09630177  0.37875667  0.75366244     0.12400
H3513       H  0.11833272  0.42092781  0.68688491     0.15200
H3514       H  0.10911225  0.43698275  0.72851900     0.13900
H3515       H  0.04405642  0.37393756  0.73644917     0.11600
H3516       H  0.07633662  0.35285546  0.76069185     0.13600
C3517       C  0.92915873  0.40969746  0.77976330     0.19700
C3518       C  0.92994920  0.42991339  0.78466093    -0.18400
C3519       C  0.91490979  0.44277278  0.77871350    -0.10700
C3520       C  0.89896220  0.43559664  0.76765333     0.22000
C3521       C  0.89700655  0.41505244  0.76472712    -0.20000
C3522       C  0.91207611  0.40217914  0.77058195    -0.10800
C3523       C  0.88704339  0.44994889  0.75617670    -0.15000
C3524       C  0.88323371  0.44635123  0.73699066    -0.28900
C3525       C  0.94707448  0.39760937  0.78324772    -0.03100
C3526       C  0.94853696  0.37794333  0.78029745    -0.39700
H3527       H  0.94277966  0.43600509  0.79208311     0.13100
H3528       H  0.91660659  0.45854272  0.78125974     0.12700
H3529       H  0.88445612  0.40910821  0.75673039     0.12200
H3530       H  0.91060875  0.38668778  0.76687143     0.12400
H3531       H  0.88526929  0.46487879  0.76193208     0.15200
H3532       H  0.88666345  0.43192431  0.73074598     0.13900
H3533       H  0.95997542  0.40545547  0.78884710     0.11600
H3534       H  0.93591965  0.36892144  0.77626227     0.13600
C3535       C  0.89969138  0.34298770  0.91520946     0.19700
C3536       C  0.91980647  0.34268222  0.92041030    -0.18400
C3537       C  0.93434764  0.33828291  0.90629222    -0.10700
C3538       C  0.92908678  0.33440204  0.88648432     0.22000
C3539       C  0.90892238  0.33344615  0.88154288    -0.20000
C3540       C  0.89432070  0.33781098  0.89571506    -0.10800
C3541       C  0.94425004  0.33288567  0.87045833    -0.15000
C3542       C  0.96116989  0.34344416  0.87104262    -0.28900
C3543       C  0.88513399  0.35025669  0.93011870    -0.03100
C3544       C  0.86551999  0.34665043  0.92954656    -0.39700
H3545       H  0.92434406  0.34634791  0.93537418     0.13100
H3546       H  0.94970907  0.33840673  0.91083321     0.12700
H3547       H  0.90449084  0.33036371  0.86641208     0.12200
H3548       H  0.87901056  0.33806208  0.89103838     0.12400
H3549       H  0.94042833  0.32497632  0.85697652     0.15200
H3550       H  0.96427133  0.35267529  0.88382768     0.13900
H3551       H  0.89099481  0.35869453  0.94249982     0.11600
H3552       H  0.85934436  0.33702702  0.91829349     0.13600
C3553       C  0.07382365  0.34792502  0.90143125     0.19700
C3554       C  0.07219850  0.36147593  0.91707028    -0.18400
C3555       C  0.08590005  0.36138799  0.93250601    -0.10700
C3556       C  0.10163911  0.34772800  0.93251543     0.22000
C3557       C  0.10260065  0.33343833  0.91748579    -0.20000
C3558       C  0.08884437  0.33348882  0.90205756    -0.10800
C3559       C  0.11778807  0.34832408  0.94732085    -0.15000
C3560       C  0.12223648  0.36454294  0.95794864    -0.28900
C3561       C  0.05957527  0.34961917  0.88486615    -0.03100
C3562       C  0.06211335  0.34136696  0.86688375    -0.39700
H3563       H  0.06048475  0.37246728  0.91715933     0.13100
H3564       H  0.08407874  0.37211413  0.94422915     0.12700
H3565       H  0.11437944  0.32251924  0.91736934     0.12200
H3566       H  0.09018120  0.32228437  0.89072892     0.12400
H3567       H  0.12750322  0.33548151  0.94818048     0.15200
H3568       H  0.11326757  0.37784606  0.95698589     0.13900
H3569       H  0.04669091  0.35896721  0.88738436     0.11600
H3570       H  0.07484695  0.33215083  0.86360662     0.13600
C3571       C  0.00196793  0.23619773  0.72322198     0.19700
C3572       C  0.01727704  0.24883940  0.72925081    -0.18400
C3573       C  0.01510730  0.26075875  0.74602674    -0.10700
C3574       C  0.99733138  0.26065473  0.75706974     0.22000
C3575       C  0.98197350  0.24789556  0.75111288    -0.20000
C3576       C  0.98434939  0.23555498  0.73448726    -0.10800
C3577       C  0.99393854  0.27544675  0.77317590    -0.15000
C3578       C  0.00890309  0.28251563  0.78431319    -0.28900
C3579       C  0.00408138  0.22581242  0.70389614    -0.03100
C3580       C  0.99749976  0.20727743  0.70038039    -0.39700
H3581       H  0.03084963  0.24984691  0.72063238     0.13100
H3582       H  0.02703158  0.27084941  0.74963524     0.12700
H3583       H  0.96800459  0.24777500  0.75909483     0.12200
H3584       H  0.97210516  0.22627816  0.72989363     0.12400
H3585       H  0.97921636  0.28177890  0.77469059     0.15200
H3586       H  0.02339653  0.27560490  0.78319545     0.13900
H3587       H  0.01208684  0.23367027  0.69218871     0.11600
H3588       H  0.99076075  0.19864838  0.71232440     0.13600
C3589       C  0.13065193  0.57972240  0.75520156     0.19700
C3590       C  0.12712155  0.59926265  0.74889085    -0.18400
C3591       C  0.11633756  0.61208059  0.76099065    -0.10700
C3592       C  0.10959875  0.60554652  0.77966843     0.22000
C3593       C  0.11541880  0.58695343  0.78699955    -0.20000
C3594       C  0.12577022  0.57396994  0.77472748    -0.10800
C3595       C  0.09259270  0.61523653  0.78905167    -0.15000
C3596       C  0.07497538  0.61384701  0.77997744    -0.28900
C3597       C  0.13655540  0.56493637  0.74034952    -0.03100
C3598       C  0.12648830  0.54778888  0.73876477    -0.39700
H3599       H  0.13093084  0.60393402  0.73390535     0.13100
H3600       H  0.11178434  0.62638579  0.75515109     0.12700
H3601       H  0.11016320  0.58171592  0.80135268     0.12200
H3602       H  0.12873170  0.55902154  0.77994945     0.12400
H3603       H  0.09354108  0.61956387  0.80454782     0.15200
H3604       H  0.07414388  0.60743972  0.76519757     0.13900
H3605       H  0.14717483  0.56932755  0.72893987     0.11600
H3606       H  0.11483845  0.54414715  0.74939046     0.13600
C3607       C  0.90167516  0.59335156  0.72727097     0.19700
C3608       C  0.91836523  0.60211405  0.71833593    -0.18400
C3609       C  0.93131943  0.61348244  0.72962224    -0.10700
C3610       C  0.92749860  0.61643640  0.74990721     0.22000
C3611       C  0.90953905  0.60985227  0.75816686    -0.20000
C3612       C  0.89670392  0.59821209  0.74694780    -0.10800
C3613       C  0.94311818  0.62356463  0.76329106    -0.15000
C3614       C  0.96162640  0.61634715  0.76183511    -0.28900
C3615       C  0.89151358  0.57738266  0.71645295    -0.03100
C3616       C  0.88468556  0.56095817  0.72571406    -0.39700
H3617       H  0.92225796  0.59882360  0.70306996     0.13100
H3618       H  0.94488640  0.61891934  0.72284891     0.12700
H3619       H  0.90623935  0.61229657  0.77373627     0.12200
H3620       H  0.88351192  0.59220227  0.75396472     0.12400
H3621       H  0.93872349  0.63201250  0.77628679     0.15200
H3622       H  0.96556147  0.60657495  0.74965657     0.13900
H3623       H  0.89267311  0.57761855  0.70032545     0.11600
H3624       H  0.88391176  0.56011448  0.74181981     0.13600
C3625       C  0.10131311  0.64477022  0.93857253     0.19700
C3626       C  0.08456159  0.63243251  0.93865279    -0.18400
C3627       C  0.07151521  0.63242202  0.92259084    -0.10700
C3628       C  0.07505779  0.64470599  0.90590037     0.22000
C3629       C  0.09115194  0.65787904  0.90632613    -0.20000
C3630       C  0.10411487  0.65800767  0.92246783    -0.10800
C3631       C  0.06269751  0.64401985  0.88765410    -0.15000
C3632       C  0.05059678  0.62878818  0.88335134    -0.28900
C3633       C  0.11562716  0.64283778  0.95525230    -0.03100
C3634       C  0.13420465  0.65004646  0.95454954    -0.39700
H3635       H  0.08176331  0.62241093  0.95102535     0.13100
H3636       H  0.05881867  0.62266996  0.92342998     0.12700
H3637       H  0.09398445  0.66782761  0.89390721     0.12200
H3638       H  0.11627428  0.66843429  0.92202892     0.12400
H3639       H  0.06445848  0.65596226  0.87684263     0.15200
H3640       H  0.04892124  0.61638208  0.89354095     0.13900
H3641       H  0.11112281  0.63401072  0.96809061     0.11600
H3642       H  0.13939585  0.65843877  0.94176344     0.13600
C3643       C  0.89633228  0.64218425  0.91654609     0.19700
C3644       C  0.89973813  0.62591286  0.90409622    -0.18400
C3645       C  0.91393098  0.62687017  0.88903610    -0.10700
C3646       C  0.92526477  0.64414758  0.88607252     0.22000
C3647       C  0.92148838  0.66074463  0.89797966    -0.20000
C3648       C  0.90722769  0.65978229  0.91320727    -0.10800
C3649       C  0.94129297  0.64474576  0.87088693    -0.15000
C3650       C  0.95249758  0.62864044  0.86749138    -0.28900
C3651       C  0.88121729  0.63969870  0.93253957    -0.03100
C3652       C  0.87566191  0.65363823  0.94569728    -0.39700
H3653       H  0.89142154  0.61226648  0.90607040     0.13100
H3654       H  0.91600112  0.61401956  0.87968766     0.12700
H3655       H  0.92993569  0.67427643  0.89582721     0.12200
H3656       H  0.90501816  0.67275706  0.92227859     0.12400
H3657       H  0.94460587  0.65866111  0.86330572     0.15200
H3658       H  0.95015662  0.61534018  0.87643584     0.13900
H3659       H  0.87391990  0.62531415  0.93328334     0.11600
H3660       H  0.88219310  0.66833275  0.94544938     0.13600
C3661       C  0.00616868  0.72300197  0.77008373     0.19700
C3662       C  0.98981880  0.73483881  0.76493808    -0.18400
C3663       C  0.99163678  0.75049745  0.75114685    -0.10700
C3664       C  0.00997794  0.75477233  0.74185688     0.22000
C3665       C  0.02640217  0.74304085  0.74720877    -0.20000
C3666       C  0.02458526  0.72742022  0.76110567    -0.10800
C3667       C  0.01233565  0.77005988  0.72550374    -0.15000
C3668       C  0.99803977  0.78294848  0.71983139    -0.28900
C3669       C  0.00295351  0.70524440  0.78337572    -0.03100
C3670       C  0.01747235  0.69574050  0.79344230    -0.39700
H3671       H  0.97538918  0.73171695  0.77136819     0.13100
H3672       H  0.97836835  0.75863787  0.74748563     0.12700
H3673       H  0.04067929  0.74567050  0.74024507     0.12200
H3674       H  0.03749276  0.71842035  0.76414116     0.12400
H3675       H  0.02600592  0.76979069  0.71691445     0.15200
H3676       H  0.98413919  0.78343716  0.72788739     0.13900
H3677       H  0.98794119  0.69946760  0.78448867     0.11600
H3678       H  0.03244974  0.70160082  0.79300652     0.13600
C3679       C  0.01565018  0.50926304  0.80971848     0.19700
C3680       C  0.02050897  0.49880557  0.79236173    -0.18400
C3681       C  0.02129618  0.47800590  0.79224921    -0.10700
C3682       C  0.01731854  0.46675518  0.80950438     0.22000
C3683       C  0.01253013  0.47711884  0.82704402    -0.20000
C3684       C  0.01171012  0.49806299  0.82715499    -0.10800
C3685       C  0.01758190  0.44444033  0.80794678    -0.15000
C3686       C  0.01622035  0.43135321  0.82329905    -0.28900
C3687       C  0.01481555  0.53163942  0.80852545    -0.03100
C3688       C  0.01095691  0.54398525  0.82385394    -0.39700
H3689       H  0.02363880  0.50678523  0.77865671     0.13100
H3690       H  0.02495367  0.47064526  0.77845171     0.12700
H3691       H  0.00906904  0.46921691  0.84066324     0.12200
H3692       H  0.00780564  0.50525057  0.84091936     0.12400
H3693       H  0.01879090  0.43843057  0.79304634     0.15200
H3694       H  0.01524109  0.43669513  0.83842220     0.13900
H3695       H  0.01772259  0.53835393  0.79405995     0.11600
H3696       H  0.00817334  0.53792767  0.83856382     0.13600
loop_ 
_geom_bond_atom_site_label_1 
_geom_bond_atom_site_label_2 
_geom_bond_distance 
_geom_bond_site_symmetry_2 
_ccdc_geom_bond_type 
Zn1           O5   1.952       .  S
Zn1           O6   2.068       .  S
Zn1          O10   2.009       .  S
Zn1          O17   2.012   1_455  S
Zn2           O5   1.939       .  S
Zn2           O7   2.006       .  S
Zn2           O9   2.045       .  S
Zn2          O13   1.998   1_455  S
Zn3           O5   1.947       .  S
Zn3           O8   1.994       .  S
Zn3          O11   2.023       .  S
Zn3          O14   2.038       .  S
Zn4           O5   1.959   1_655  S
Zn4          O12   2.055       .  S
Zn4          O15   2.044       .  S
Zn4          O16   1.997       .  S
O6           C18   1.277       .  A
O7           C19   1.273       .  A
O8           C20   1.272       .  A
O9           C18   1.275       .  A
O10          C20   1.274       .  A
O11          C19   1.276       .  A
O12          C21   1.276   1_655  A
O13          C22   1.273       .  A
O14          C21   1.274       .  A
O15          C22   1.279       .  A
O16          C23   1.273       .  A
O17          C23   1.274       .  A
C18        C3688   1.498       .  S
C19        C3632   1.472       .  S
C20        C3596   1.462       .  S
C21        C3670   1.493       .  S
C22        C3650   1.471       .  S
C23        C3614   1.466       .  S
Zn24         O28   1.964   1_655  S
Zn24         O29   2.037       .  S
Zn24         O33   2.052       .  S
Zn24         O40   1.998       .  S
Zn25         O28   1.935       .  S
Zn25         O30   1.991       .  S
Zn25         O32   2.005   1_455  S
Zn25         O36   2.058       .  S
Zn26         O28   1.941       .  S
Zn26         O31   2.018       .  S
Zn26         O34   2.015       .  S
Zn26         O37   2.002       .  S
Zn27         O28   1.939       .  S
Zn27         O35   2.015       .  S
Zn27         O38   2.048       .  S
Zn27         O39   1.985   1_455  S
O29          C41   1.278       .  A
O30          C42   1.274       .  A
O31          C43   1.273       .  A
O32          C41   1.274       .  A
O33          C43   1.277   1_655  A
O34          C42   1.274       .  A
O35          C44   1.276       .  A
O36          C45   1.276       .  A
O37          C44   1.272       .  A
O38          C45   1.275       .  A
O39          C46   1.273       .  A
O40          C46   1.270       .  A
C41        C3542   1.474       .  S
C42        C3562   1.470       .  S
C43        C3578   1.483       .  S
C44        C3508   1.468       .  S
C45        C3686   1.498       .  S
C46        C3526   1.462       .  S
Zn47         O51   1.965       .  S
Zn47         O52   2.037       .  S
Zn47         O56   2.069       .  S
Zn47         O63   1.995       .  S
Zn48         O51   1.961       .  S
Zn48         O53   2.050       .  S
Zn48         O55   2.023       .  S
Zn48         O59   2.073       .  S
Zn49         O51   1.935       .  S
Zn49         O54   2.024       .  S
Zn49         O57   1.992       .  S
Zn49         O60   1.999       .  S
Zn50         O51   1.957       .  S
Zn50         O58   2.008       .  S
Zn50         O61   2.043       .  S
Zn50         O62   2.012       .  S
O52          C64   1.278       .  A
O53          C65   1.278       .  A
O54          C66   1.273       .  A
O55          C64   1.277       .  A
O56          C66   1.277       .  A
O57          C65   1.271       .  A
O58          C67   1.272       .  A
O59          C68   1.279       .  A
O60          C67   1.271       .  A
O61          C68   1.276       .  A
O62          C69   1.274       .  A
O63          C69   1.272       .  A
C64        C3434   1.480       .  S
C65        C3452   1.475       .  S
C66        C3472   1.491       .  S
C67        C3506   1.462       .  S
C68        C3488   1.499       .  S
C69        C3598   1.467       .  S
Zn70         O74   1.971       .  S
Zn70         O75   2.042       .  S
Zn70         O79   2.097       .  S
Zn70         O86   2.062       .  S
Zn71         O74   1.955       .  S
Zn71         O76   1.989       .  S
Zn71         O78   2.011       .  S
Zn71         O82   2.083       .  S
Zn72         O74   1.959       .  S
Zn72         O77   2.023       .  S
Zn72         O80   2.017       .  S
Zn72         O83   2.018       .  S
Zn73         O74   1.922       .  S
Zn73         O81   1.980       .  S
Zn73         O84   2.034       .  S
Zn73         O85   1.987       .  S
O75          C87   1.279       .  A
O76          C88   1.272       .  A
O77          C89   1.274       .  A
O78          C87   1.278       .  A
O79          C89   1.283       .  A
O80          C88   1.273       .  A
O81          C90   1.270       .  A
O82          C91   1.278       .  A
O83          C90   1.275       .  A
O84          C91   1.273       .  A
O85          C92   1.271       .  A
O86          C92   1.279       .  A
C87        C3380   1.480       .  S
C88        C3616   1.469       .  S
C89        C3416   1.501       .  S
C90        C3524   1.462       .  S
C91        C3490   1.497       .  S
C92        C3398   1.475       .  S
Zn93         O97   1.944       .  S
Zn93         O98   2.005       .  S
Zn93        O102   2.004       .  S
Zn93        O109   1.993   1_545  S
Zn94         O97   1.975       .  S
Zn94         O99   2.042       .  S
Zn94        O101   2.078       .  S
Zn94        O105   2.020   1_545  S
Zn95         O97   1.923       .  S
Zn95        O100   1.992       .  S
Zn95        O103   1.978       .  S
Zn95        O106   2.032       .  S
Zn96         O97   1.951   1_565  S
Zn96        O104   2.085       .  S
Zn96        O107   2.010       .  S
Zn96        O108   1.998       .  S
O98         C110   1.272       .  A
O99         C111   1.276       .  A
O100        C112   1.272       .  A
O101        C110   1.279       .  A
O102        C112   1.271       .  A
O103        C111   1.273       .  A
O104        C113   1.278   1_565  A
O105        C114   1.275       .  A
O106        C113   1.274       .  A
O107        C114   1.276       .  A
O108        C115   1.274       .  A
O109        C115   1.271       .  A
C110       C3346   1.495       .  S
C111       C3326   1.478       .  S
C112       C3272   1.467       .  S
C113       C3364   1.497       .  S
C114       C3308   1.472       .  S
C115       C3292   1.460       .  S
Zn116       O120   1.935   1_545  S
Zn116       O121   1.976       .  S
Zn116       O125   2.053       .  S
Zn116       O132   1.982       .  S
Zn117       O120   1.942       .  S
Zn117       O122   2.007       .  S
Zn117       O124   2.017   1_565  S
Zn117       O128   1.998       .  S
Zn118       O120   1.927       .  S
Zn118       O123   2.053       .  S
Zn118       O126   1.991       .  S
Zn118       O129   1.974       .  S
Zn119       O120   1.990       .  S
Zn119       O127   2.085       .  S
Zn119       O130   2.147       .  S
Zn119       O131   2.084   1_565  S
O121        C133   1.270       .  A
O122        C134   1.272       .  A
O123        C135   1.275       .  A
O124        C133   1.273       .  A
O125        C135   1.275   1_545  A
O126        C134   1.272       .  A
O127        C136   1.283       .  A
O128        C137   1.272       .  A
O129        C136   1.271       .  A
O130        C137   1.289       .  A
O131        C138   1.284       .  A
O132        C138   1.273       .  A
C133       C3182   1.468       .  S
C134       C3200   1.466       .  S
C135       C3362   1.498       .  S
C136       C3236   1.476       .  S
C137       C3254   1.517       .  S
C138       C3218   1.477       .  S
Zn139       O143   1.949       .  S
Zn139       O144   2.024       .  S
Zn139       O148   1.998       .  S
Zn139       O155   2.008       .  S
Zn140       O143   1.961       .  S
Zn140       O145   2.002       .  S
Zn140       O147   2.051       .  S
Zn140       O151   2.019       .  S
Zn141       O143   1.941       .  S
Zn141       O146   1.995       .  S
Zn141       O149   1.998       .  S
Zn141       O152   2.053       .  S
Zn142       O143   1.944       .  S
Zn142       O150   2.058       .  S
Zn142       O153   2.008       .  S
Zn142       O154   2.007       .  S
O144        C156   1.273       .  A
O145        C157   1.270       .  A
O146        C158   1.273       .  A
O147        C156   1.276       .  A
O148        C158   1.270       .  A
O149        C157   1.274       .  A
O150        C159   1.277       .  A
O151        C160   1.277       .  A
O152        C159   1.276       .  A
O153        C160   1.274       .  A
O154        C161   1.273       .  A
O155        C161   1.275       .  A
C156       C3146   1.487       .  S
C157       C3274   1.465       .  S
C158       C3184   1.464       .  S
C159       C3166   1.496       .  S
C160       C3110   1.469       .  S
C161       C3128   1.468       .  S
Zn162       O166   1.975       .  S
Zn162       O167   2.087       .  S
Zn162       O171   2.049       .  S
Zn162       O178   2.027       .  S
Zn163       O166   1.939       .  S
Zn163       O168   1.993       .  S
Zn163       O170   1.996       .  S
Zn163       O174   2.006       .  S
Zn164       O166   1.943       .  S
Zn164       O169   2.004       .  S
Zn164       O172   1.997       .  S
Zn164       O175   2.074       .  S
Zn165       O166   1.923       .  S
Zn165       O173   2.040       .  S
Zn165       O176   1.992       .  S
Zn165       O177   1.982       .  S
O167        C179   1.279       .  A
O168        C180   1.271       .  A
O169        C181   1.277       .  A
O170        C179   1.271       .  A
O171        C181   1.279       .  A
O172        C180   1.273       .  A
O173        C182   1.275       .  A
O174        C183   1.271       .  A
O175        C182   1.278       .  A
O176        C183   1.272       .  A
O177        C184   1.273       .  A
O178        C184   1.275       .  A
C179       C3092   1.499       .  S
C180       C3290   1.462       .  S
C181       C3056   1.482       .  S
C182       C3164   1.496       .  S
C183       C3202   1.465       .  S
C184       C3074   1.471       .  S
Zn185       O189   1.928       .  S
Zn185       O190   2.023       .  S
Zn185       O194   2.003   1_554  S
Zn185       O201   2.009       .  S
Zn186       O189   1.969       .  S
Zn186       O191   2.058   1_554  S
Zn186       O193   2.112       .  S
Zn186       O197   2.039       .  S
Zn187       O189   1.947   1_556  S
Zn187       O192   2.003       .  S
Zn187       O195   2.008       .  S
Zn187       O198   2.058       .  S
Zn188       O189   1.940       .  S
Zn188       O196   2.015       .  S
Zn188       O199   1.996       .  S
Zn188       O200   1.997       .  S
O190        C202   1.274       .  A
O191        C203   1.282       .  A
O192        C204   1.269       .  A
O193        C202   1.284       .  A
O194        C204   1.274       .  A
O195        C203   1.276       .  A
O196        C205   1.271       .  A
O197        C206   1.279       .  A
O198        C205   1.277   1_556  A
O199        C206   1.272       .  A
O200        C207   1.272       .  A
O201        C207   1.272       .  A
C202       C3038   1.500       .  S
C203       C3238   1.480       .  S
C204       C2984   1.464       .  S
C205       C3022   1.485       .  S
C206       C3002   1.473       .  S
C207       C2966   1.468       .  S
Zn208       O212   1.951   1_554  S
Zn208       O213   2.013       .  S
Zn208       O217   2.040       .  S
Zn208       O224   1.996       .  S
Zn209       O212   1.952       .  S
Zn209       O214   2.016       .  S
Zn209       O216   2.012   1_556  S
Zn209       O220   2.068       .  S
Zn210       O212   1.963       .  S
Zn210       O215   2.061       .  S
Zn210       O218   2.015       .  S
Zn210       O221   1.986       .  S
Zn211       O212   1.954       .  S
Zn211       O219   2.011       .  S
Zn211       O222   2.062       .  S
Zn211       O223   1.997   1_556  S
O213        C225   1.274       .  A
O214        C226   1.277       .  A
O215        C227   1.276   1_556  A
O216        C225   1.275       .  A
O217        C227   1.275       .  A
O218        C226   1.275       .  A
O219        C228   1.273       .  A
O220        C229   1.278       .  A
O221        C228   1.271       .  A
O222        C229   1.277       .  A
O223        C230   1.274       .  A
O224        C230   1.270       .  A
C225       C2930   1.474       .  S
C226       C3310   1.471       .  S
C227       C2948   1.494       .  S
C228       C2912   1.462       .  S
C229       C3040   1.503       .  S
C230       C2894   1.461       .  S
Zn231       O235   1.931       .  S
Zn231       O236   1.968       .  S
Zn231       O240   2.055       .  S
Zn231       O247   1.994       .  S
Zn232       O235   1.943       .  S
Zn232       O237   2.008       .  S
Zn232       O239   2.022       .  S
Zn232       O243   2.008       .  S
Zn233       O235   1.935       .  S
Zn233       O238   2.052       .  S
Zn233       O241   2.002       .  S
Zn233       O244   2.006       .  S
Zn234       O235   1.972       .  S
Zn234       O242   2.029       .  S
Zn234       O245   2.071       .  S
Zn234       O246   2.039       .  S
O236        C248   1.270       .  A
O237        C249   1.274       .  A
O238        C250   1.275       .  A
O239        C248   1.273       .  A
O240        C250   1.275       .  A
O241        C249   1.274       .  A
O242        C251   1.275       .  A
O243        C252   1.273       .  A
O244        C251   1.277       .  A
O245        C252   1.278       .  A
O246        C253   1.276       .  A
O247        C253   1.275       .  A
C248       C2896   1.467       .  S
C249       C2968   1.468       .  S
C250       C2876   1.497       .  S
C251       C2840   1.473       .  S
C252       C2860   1.494       .  S
C253       C2822   1.479       .  S
Zn254       O258   1.950       .  S
Zn254       O259   1.993       .  S
Zn254       O263   2.068       .  S
Zn254       O270   2.012       .  S
Zn255       O258   1.950       .  S
Zn255       O260   2.015       .  S
Zn255       O262   2.009       .  S
Zn255       O266   2.001       .  S
Zn256       O258   1.927       .  S
Zn256       O261   2.045       .  S
Zn256       O264   1.981       .  S
Zn256       O267   2.000       .  S
Zn257       O258   1.970       .  S
Zn257       O265   2.036       .  S
Zn257       O268   2.082       .  S
Zn257       O269   2.023       .  S
O259        C271   1.271       .  A
O260        C272   1.273       .  A
O261        C273   1.275       .  A
O262        C271   1.274       .  A
O263        C273   1.277       .  A
O264        C272   1.272       .  A
O265        C274   1.275       .  A
O266        C275   1.272       .  A
O267        C274   1.274       .  A
O268        C275   1.279       .  A
O269        C276   1.276       .  A
O270        C276   1.278       .  A
C271       C2986   1.464       .  S
C272       C2914   1.466       .  S
C273       C2878   1.497       .  S
C274       C2786   1.475       .  S
C275       C3094   1.498       .  S
C276       C2804   1.474       .  S
Zn277       O281   1.953       .  S
Zn277       O282   2.015   1_556  S
Zn277       O286   2.016       .  S
Zn277       O293   2.013       .  S
Zn278       O281   1.921   1_554  S
Zn278       O283   2.059       .  S
Zn278       O285   1.986       .  S
Zn278       O289   1.995       .  S
Zn279       O281   1.941       .  S
Zn279       O284   1.973       .  S
Zn279       O287   2.079       .  S
Zn279       O290   2.002       .  S
Zn280       O281   1.971       .  S
Zn280       O288   2.041       .  S
Zn280       O291   2.044   1_556  S
Zn280       O292   2.089       .  S
O282        C294   1.273       .  A
O283        C295   1.276   1_554  A
O284        C296   1.271       .  A
O285        C294   1.273       .  A
O286        C296   1.273       .  A
O287        C295   1.277       .  A
O288        C297   1.278       .  A
O289        C298   1.275       .  A
O290        C297   1.277       .  A
O291        C298   1.277       .  A
O292        C299   1.281       .  A
O293        C299   1.272       .  A
C294       C2714   1.468       .  S
C295       C2768   1.505   1_556  S
C296       C2732   1.465       .  S
C297       C3652   1.480       .  S
C298       C2750   1.480       .  S
C299       C2950   1.495       .  S
Zn300       O304   1.948   1_554  S
Zn300       O305   2.043       .  S
Zn300       O309   1.991       .  S
Zn300       O316   2.015       .  S
Zn301       O304   1.960       .  S
Zn301       O306   1.993       .  S
Zn301       O308   2.057       .  S
Zn301       O312   2.025       .  S
Zn302       O304   1.949       .  S
Zn302       O307   2.001   1_556  S
Zn302       O310   2.016       .  S
Zn302       O313   2.061       .  S
Zn303       O304   1.951       .  S
Zn303       O311   2.083       .  S
Zn303       O314   2.029       .  S
Zn303       O315   2.018   1_556  S
O305        C317   1.275   1_554  A
O306        C318   1.273       .  A
O307        C319   1.275       .  A
O308        C317   1.275       .  A
O309        C319   1.269       .  A
O310        C318   1.275       .  A
O311        C320   1.281       .  A
O312        C321   1.276       .  A
O313        C320   1.276       .  A
O314        C321   1.279       .  A
O315        C322   1.274       .  A
O316        C322   1.276       .  A
C317       C2696   1.494   1_556  S
C318       C2660   1.467       .  S
C319       C2642   1.464       .  S
C320       C2770   1.505       .  S
C321       C3544   1.478       .  S
C322       C2678   1.475       .  S
Zn323       O327   1.948       .  S
Zn323       O328   2.026       .  S
Zn323       O332   2.016       .  S
Zn323       O339   2.024       .  S
Zn324       O327   1.962       .  S
Zn324       O329   2.039       .  S
Zn324       O331   2.078       .  S
Zn324       O335   2.037       .  S
Zn325       O327   1.940       .  S
Zn325       O330   1.986       .  S
Zn325       O333   2.004       .  S
Zn325       O336   2.085       .  S
Zn326       O327   1.917       .  S
Zn326       O334   2.050       .  S
Zn326       O337   2.000       .  S
Zn326       O338   1.980       .  S
O328        C340   1.274       .  A
O329        C341   1.278       .  A
O330        C342   1.273       .  A
O331        C340   1.280       .  A
O332        C342   1.274       .  A
O333        C341   1.278       .  A
O334        C343   1.275       .  A
O335        C344   1.276       .  A
O336        C343   1.278       .  A
O337        C344   1.275       .  A
O338        C345   1.270       .  A
O339        C345   1.277       .  A
C340       C2606   1.493       .  S
C341       C2824   1.480       .  S
C342       C2716   1.468       .  S
C343       C2624   1.503       .  S
C344       C2590   1.477       .  S
C345       C2644   1.461       .  S
Zn346       O350   1.979       .  S
Zn346       O351   2.093       .  S
Zn346       O355   2.040       .  S
Zn346       O362   1.998       .  S
Zn347       O350   1.942       .  S
Zn347       O352   2.008       .  S
Zn347       O354   2.023       .  S
Zn347       O358   1.970       .  S
Zn348       O350   1.956       .  S
Zn348       O353   2.012       .  S
Zn348       O356   2.030       .  S
Zn348       O359   2.075       .  S
Zn349       O350   1.970       .  S
Zn349       O357   2.068       .  S
Zn349       O360   2.019       .  S
Zn349       O361   2.004       .  S
O351        C363   1.279       .  A
O352        C364   1.272       .  A
O353        C365   1.276       .  A
O354        C363   1.272       .  A
O355        C365   1.280       .  A
O356        C364   1.276       .  A
O357        C366   1.277       .  A
O358        C367   1.270       .  A
O359        C366   1.279       .  A
O360        C367   1.274       .  A
O361        C368   1.273       .  A
O362        C368   1.272       .  A
C363       C3418   1.497       .  S
C364       C2788   1.475       .  S
C365       C2570   1.475       .  S
C366       C2626   1.505       .  S
C367       C2734   1.465       .  S
C368       C2662   1.463       .  S
Zn369       O373   1.942       .  S
Zn369       O374   2.021       .  S
Zn369       O378   2.069       .  S
Zn369       O385   1.993   1_655  S
Zn370       O373   1.933       .  S
Zn370       O375   1.969       .  S
Zn370       O377   1.993       .  S
Zn370       O381   2.010       .  S
Zn371       O373   1.948       .  S
Zn371       O376   2.065       .  S
Zn371       O379   2.022       .  S
Zn371       O382   2.017   1_655  S
Zn372       O373   1.960   1_455  S
Zn372       O380   1.988       .  S
Zn372       O383   2.077       .  S
Zn372       O384   2.043       .  S
O374        C386   1.276       .  A
O375        C387   1.268       .  A
O376        C388   1.277       .  A
O377        C386   1.271       .  A
O378        C388   1.278       .  A
O379        C387   1.277       .  A
O380        C389   1.270       .  A
O381        C390   1.271       .  A
O382        C389   1.278       .  A
O383        C390   1.278   1_455  A
O384        C391   1.280       .  A
O385        C391   1.273       .  A
C386       C2518   1.469       .  S
C387       C2500   1.461       .  S
C388       C2552   1.505       .  S
C389       C2480   1.465       .  S
C390       C3668   1.489       .  S
C391       C2536   1.469       .  S
Zn392       O396   1.947   1_455  S
Zn392       O397   2.073       .  S
Zn392       O401   2.000       .  S
Zn392       O408   2.031       .  S
Zn393       O396   1.949       .  S
Zn393       O398   1.973       .  S
Zn393       O400   2.047       .  S
Zn393       O404   2.026       .  S
Zn394       O396   1.960   1_455  S
Zn394       O399   2.006       .  S
Zn394       O402   2.024   1_455  S
Zn394       O405   2.060   1_455  S
Zn395       O396   1.949       .  S
Zn395       O403   2.071       .  S
Zn395       O406   2.014       .  S
Zn395       O407   2.009   1_655  S
O397        C409   1.279       .  A
O398        C410   1.272       .  A
O399        C411   1.273       .  A
O400        C409   1.275   1_655  A
O401        C411   1.273       .  A
O402        C410   1.275       .  A
O403        C412   1.278       .  A
O404        C413   1.276       .  A
O405        C412   1.277       .  A
O406        C413   1.276       .  A
O407        C414   1.274       .  A
O408        C414   1.279       .  A
C409       C2462   1.500       .  S
C410       C2408   1.468       .  S
C411       C2390   1.464       .  S
C412       C2554   1.504       .  S
C413       C2444   1.475       .  S
C414       C2426   1.475       .  S
Zn415       O419   1.965       .  S
Zn415       O420   2.022       .  S
Zn415       O424   2.016       .  S
Zn415       O431   2.022       .  S
Zn416       O419   1.965       .  S
Zn416       O421   2.036       .  S
Zn416       O423   2.082       .  S
Zn416       O427   2.036       .  S
Zn417       O419   1.955       .  S
Zn417       O422   1.982       .  S
Zn417       O425   2.019       .  S
Zn417       O428   2.091       .  S
Zn418       O419   1.927       .  S
Zn418       O426   2.044       .  S
Zn418       O429   1.994       .  S
Zn418       O430   1.989       .  S
O420        C432   1.274       .  A
O421        C433   1.277       .  A
O422        C434   1.272       .  A
O423        C432   1.281       .  A
O424        C434   1.273       .  A
O425        C433   1.277       .  A
O426        C435   1.275       .  A
O427        C436   1.277       .  A
O428        C435   1.280       .  A
O429        C436   1.272       .  A
O430        C437   1.271       .  A
O431        C437   1.275       .  A
C432       C2356   1.496       .  S
C433       C3436   1.478       .  S
C434       C2482   1.467       .  S
C435       C2372   1.502       .  S
C436       C2336   1.471       .  S
C437       C2392   1.464       .  S
Zn438       O442   1.961       .  S
Zn438       O443   2.025       .  S
Zn438       O447   2.075       .  S
Zn438       O454   2.021       .  S
Zn439       O442   1.917       .  S
Zn439       O444   1.996       .  S
Zn439       O446   1.967       .  S
Zn439       O450   2.009       .  S
Zn440       O442   1.940       .  S
Zn440       O445   2.063       .  S
Zn440       O448   2.034       .  S
Zn440       O451   1.989       .  S
Zn441       O442   1.965       .  S
Zn441       O449   2.067       .  S
Zn441       O452   2.106       .  S
Zn441       O453   1.982       .  S
O443        C455   1.276       .  A
O444        C456   1.271       .  A
O445        C457   1.277       .  A
O446        C455   1.270       .  A
O447        C457   1.277       .  A
O448        C456   1.277       .  A
O449        C458   1.283       .  A
O450        C459   1.271       .  A
O451        C458   1.273       .  A
O452        C459   1.281       .  A
O453        C460   1.273       .  A
O454        C460   1.276       .  A
C455       C2410   1.462       .  S
C456       C2302   1.472       .  S
C457       C2374   1.504       .  S
C458       C3382   1.474       .  S
C459       C2318   1.497       .  S
C460       C2498   1.465       .  S
Zn461       O465   1.948       .  S
Zn461       O466   1.990       .  S
Zn461       O470   2.062       .  S
Zn461       O477   1.985   1_565  S
Zn462       O465   1.971       .  S
Zn462       O467   2.026       .  S
Zn462       O469   2.016       .  S
Zn462       O473   2.066       .  S
Zn463       O465   1.950       .  S
Zn463       O468   2.062       .  S
Zn463       O471   1.993       .  S
Zn463       O474   2.013   1_565  S
Zn464       O465   1.958   1_545  S
Zn464       O472   1.998       .  S
Zn464       O475   2.017       .  S
Zn464       O476   1.985       .  S
O466        C478   1.271       .  A
O467        C479   1.277       .  A
O468        C480   1.277       .  A
O469        C478   1.274       .  A
O470        C480   1.276       .  A
O471        C479   1.272       .  A
O472        C481   1.271       .  A
O473        C482   1.277       .  A
O474        C481   1.275       .  A
O475        C482   1.273   1_545  A
O476        C483   1.268       .  A
O477        C483   1.273       .  A
C478       C2248   1.461       .  S
C479       C2516   1.468       .  S
C480       C2284   1.501       .  S
C481       C2264   1.467       .  S
C482       C3344   1.495       .  S
C483       C2228   1.461       .  S
Zn484       O488   1.947       .  S
Zn484       O489   2.003       .  S
Zn484       O493   2.009   1_565  S
Zn484       O500   1.990       .  S
Zn485       O488   1.971       .  S
Zn485       O490   2.031   1_565  S
Zn485       O492   2.090       .  S
Zn485       O496   2.042       .  S
Zn486       O488   1.923   1_545  S
Zn486       O491   1.992       .  S
Zn486       O494   2.002       .  S
Zn486       O497   2.041       .  S
Zn487       O488   1.958       .  S
Zn487       O495   2.087       .  S
Zn487       O498   2.006       .  S
Zn487       O499   2.005       .  S
O489        C501   1.271       .  A
O490        C502   1.275       .  A
O491        C503   1.274       .  A
O492        C501   1.280       .  A
O493        C503   1.272       .  A
O494        C502   1.274       .  A
O495        C504   1.279       .  A
O496        C505   1.279       .  A
O497        C504   1.275   1_545  A
O498        C505   1.277       .  A
O499        C506   1.272       .  A
O500        C506   1.272       .  A
C501       C2210   1.497       .  S
C502       C2192   1.477       .  S
C503       C2156   1.465       .  S
C504       C2282   1.499   1_565  S
C505       C2446   1.475       .  S
C506       C2174   1.464       .  S
Zn507       O511   1.934       .  S
Zn507       O512   2.082       .  S
Zn507       O516   2.015       .  S
Zn507       O523   1.964       .  S
Zn508       O511   1.920       .  S
Zn508       O513   1.984       .  S
Zn508       O515   2.050       .  S
Zn508       O519   1.978       .  S
Zn509       O511   1.968       .  S
Zn509       O514   2.019       .  S
Zn509       O517   2.027       .  S
Zn509       O520   2.096       .  S
Zn510       O511   1.932       .  S
Zn510       O518   2.000       .  S
Zn510       O521   2.014       .  S
Zn510       O522   2.010       .  S
O512        C524   1.278       .  A
O513        C525   1.275       .  A
O514        C526   1.275       .  A
O515        C524   1.275       .  A
O516        C526   1.278       .  A
O517        C525   1.276       .  A
O518        C527   1.271       .  A
O519        C528   1.271       .  A
O520        C527   1.281       .  A
O521        C528   1.273       .  A
O522        C529   1.273       .  A
O523        C529   1.271       .  A
C524       C2140   1.503       .  S
C525       C2102   1.468       .  S
C526       C3112   1.471       .  S
C527       C2120   1.488       .  S
C528       C2158   1.466       .  S
C529       C2230   1.459       .  S
Zn530       O534   1.955       .  S
Zn530       O535   2.015       .  S
Zn530       O539   2.004       .  S
Zn530       O546   2.008       .  S
Zn531       O534   1.926       .  S
Zn531       O536   2.053       .  S
Zn531       O538   1.998       .  S
Zn531       O542   1.999       .  S
Zn532       O534   1.948       .  S
Zn532       O537   1.995       .  S
Zn532       O540   2.086       .  S
Zn532       O543   2.005       .  S
Zn533       O534   1.976       .  S
Zn533       O541   2.065       .  S
Zn533       O544   2.048       .  S
Zn533       O545   2.106       .  S
O535        C547   1.273       .  A
O536        C548   1.276       .  A
O537        C549   1.273       .  A
O538        C547   1.274       .  A
O539        C549   1.272       .  A
O540        C548   1.279       .  A
O541        C550   1.281       .  A
O542        C551   1.275       .  A
O543        C550   1.277       .  A
O544        C551   1.277       .  A
O545        C552   1.283       .  A
O546        C552   1.271       .  A
C547       C2246   1.469       .  S
C548       C2138   1.504       .  S
C549       C2176   1.465       .  S
C550       C2084   1.486       .  S
C551       C3058   1.482       .  S
C552       C2320   1.502       .  S
Zn553       O557   1.956       .  S
Zn553       O558   2.032   1_545  S
Zn553       O562   2.030       .  S
Zn553       O569   2.084       .  S
Zn554       O557   1.942   1_565  S
Zn554       O559   2.026       .  S
Zn554       O561   1.998       .  S
Zn554       O565   1.995       .  S
Zn555       O557   1.972       .  S
Zn555       O560   2.027       .  S
Zn555       O563   2.069       .  S
Zn555       O566   2.003       .  S
Zn556       O557   1.945       .  S
Zn556       O564   1.982       .  S
Zn556       O567   2.000   1_545  S
Zn556       O568   2.063       .  S
O558        C570   1.278       .  A
O559        C571   1.273       .  A
O560        C572   1.277       .  A
O561        C570   1.273       .  A
O562        C572   1.279       .  A
O563        C571   1.277   1_545  A
O564        C573   1.274       .  A
O565        C574   1.271       .  A
O566        C573   1.271       .  A
O567        C574   1.272       .  A
O568        C575   1.276       .  A
O569        C575   1.280       .  A
C570       C2932   1.472       .  S
C571       C2212   1.492       .  S
C572       C2048   1.480       .  S
C573       C2012   1.464       .  S
C574       C2030   1.462       .  S
C575       C2066   1.507       .  S
Zn576       O580   1.956       .  S
Zn576       O581   1.979       .  S
Zn576       O585   2.054       .  S
Zn576       O592   2.037       .  S
Zn577       O580   1.945       .  S
Zn577       O582   2.021   1_545  S
Zn577       O584   2.025       .  S
Zn577       O588   2.067       .  S
Zn578       O580   1.945   1_565  S
Zn578       O583   2.055       .  S
Zn578       O586   1.977       .  S
Zn578       O589   2.034       .  S
Zn579       O580   1.947       .  S
Zn579       O587   2.002   1_545  S
Zn579       O590   2.081       .  S
Zn579       O591   2.017       .  S
O581        C593   1.269       .  A
O582        C594   1.275       .  A
O583        C595   1.276   1_565  A
O584        C593   1.278       .  A
O585        C595   1.275       .  A
O586        C594   1.271       .  A
O587        C596   1.274       .  A
O588        C597   1.279       .  A
O589        C596   1.279       .  A
O590        C597   1.278       .  A
O591        C598   1.276       .  A
O592        C598   1.278       .  A
C593       C1940   1.464       .  S
C594       C1960   1.466       .  S
C595       C1994   1.500       .  S
C596       C3004   1.471       .  S
C597       C2068   1.506       .  S
C598       C1976   1.475       .  S
Zn599       O603   1.953       .  S
Zn599       O604   2.061       .  S
Zn599       O608   2.003       .  S
Zn599       O615   2.003       .  S
Zn600       O603   1.942       .  S
Zn600       O605   2.009       .  S
Zn600       O607   2.072       .  S
Zn600       O611   2.014       .  S
Zn601       O603   1.945       .  S
Zn601       O606   1.976       .  S
Zn601       O609   2.002       .  S
Zn601       O612   2.017       .  S
Zn602       O603   1.959       .  S
Zn602       O610   2.067       .  S
Zn602       O613   2.043       .  S
Zn602       O614   1.985       .  S
O604        C616   1.276       .  A
O605        C617   1.275       .  A
O606        C618   1.268       .  A
O607        C616   1.279       .  A
O608        C618   1.274       .  A
O609        C617   1.272       .  A
O610        C619   1.278       .  A
O611        C620   1.275       .  A
O612        C619   1.272       .  A
O613        C620   1.279       .  A
O614        C621   1.271       .  A
O615        C621   1.274       .  A
C616       C1924   1.503       .  S
C617       C2104   1.467       .  S
C618       C2014   1.462       .  S
C619       C1906   1.493       .  S
C620       C1886   1.478       .  S
C621       C1942   1.458       .  S
Zn622       O626   1.947       .  S
Zn622       O627   2.012       .  S
Zn622       O631   2.002       .  S
Zn622       O638   2.001       .  S
Zn623       O626   1.925       .  S
Zn623       O628   1.996       .  S
Zn623       O630   1.986       .  S
Zn623       O634   2.044       .  S
Zn624       O626   1.970       .  S
Zn624       O629   2.077       .  S
Zn624       O632   2.027       .  S
Zn624       O635   2.039       .  S
Zn625       O626   1.948       .  S
Zn625       O633   2.028       .  S
Zn625       O636   2.089       .  S
Zn625       O637   2.005       .  S
O627        C639   1.272       .  A
O628        C640   1.275       .  A
O629        C641   1.278       .  A
O630        C639   1.271       .  A
O631        C641   1.272       .  A
O632        C640   1.275       .  A
O633        C642   1.279       .  A
O634        C643   1.276       .  A
O635        C642   1.278       .  A
O636        C643   1.279       .  A
O637        C644   1.276       .  A
O638        C644   1.272       .  A
C639       C1958   1.468       .  S
C640       C1868   1.474       .  S
C641       C2858   1.495       .  S
C642       C2086   1.483       .  S
C643       C1922   1.501       .  S
C644       C2032   1.465       .  S
Zn645       O649   1.990   1_554  S
Zn645       O650   2.041   1_554  S
Zn645       O654   2.054       .  S
Zn645       O661   2.095       .  S
Zn646       O649   1.932       .  S
Zn646       O651   2.052       .  S
Zn646       O653   1.978       .  S
Zn646       O657   1.990       .  S
Zn647       O649   1.957   1_554  S
Zn647       O652   2.004       .  S
Zn647       O655   2.080       .  S
Zn647       O658   2.010       .  S
Zn648       O649   1.954       .  S
Zn648       O656   1.990   1_556  S
Zn648       O659   2.007       .  S
Zn648       O660   2.002       .  S
O650        C662   1.275       .  A
O651        C663   1.276       .  A
O652        C664   1.274       .  A
O653        C662   1.273       .  A
O654        C664   1.281       .  A
O655        C663   1.278   1_554  A
O656        C665   1.272       .  A
O657        C666   1.272       .  A
O658        C665   1.273       .  A
O659        C666   1.271       .  A
O660        C667   1.270   1_556  A
O661        C667   1.281       .  A
C662       C3328   1.478       .  S
C663       C1850   1.503       .  S
C664       C2050   1.476       .  S
C665       C1816   1.465       .  S
C666       C1832   1.466       .  S
C667       C2698   1.497       .  S
Zn668       O672   1.918   1_554  S
Zn668       O673   1.992       .  S
Zn668       O677   1.987       .  S
Zn668       O684   2.046       .  S
Zn669       O672   1.944       .  S
Zn669       O674   2.103       .  S
Zn669       O676   2.052   1_556  S
Zn669       O680   2.046       .  S
Zn670       O672   1.922       .  S
Zn670       O675   2.005   1_556  S
Zn670       O678   2.010   1_556  S
Zn670       O681   1.995       .  S
Zn671       O672   1.934       .  S
Zn671       O679   2.005       .  S
Zn671       O682   2.027       .  S
Zn671       O683   2.091       .  S
O673        C685   1.274       .  A
O674        C686   1.285   1_556  A
O675        C687   1.271       .  A
O676        C685   1.278       .  A
O677        C687   1.266       .  A
O678        C686   1.275       .  A
O679        C688   1.273       .  A
O680        C689   1.282       .  A
O681        C688   1.271       .  A
O682        C689   1.282       .  A
O683        C690   1.281   1_556  A
O684        C690   1.276       .  A
C685       C1978   1.482       .  S
C686       C1796   1.491       .  S
C687       C1762   1.455       .  S
C688       C1778   1.467       .  S
C689       C3220   1.483       .  S
C690       C1852   1.502       .  S
Zn691       O695   1.965       .  S
Zn691       O696   2.008       .  S
Zn691       O700   2.057       .  S
Zn691       O707   2.025       .  S
Zn692       O695   1.950       .  S
Zn692       O697   1.987       .  S
Zn692       O699   1.991       .  S
Zn692       O703   2.061       .  S
Zn693       O695   1.957       .  S
Zn693       O698   2.031       .  S
Zn693       O701   2.003       .  S
Zn693       O704   2.030       .  S
Zn694       O695   1.943       .  S
Zn694       O702   2.001       .  S
Zn694       O705   2.060       .  S
Zn694       O706   2.016       .  S
O696        C708   1.271       .  A
O697        C709   1.272       .  A
O698        C710   1.274       .  A
O699        C708   1.272       .  A
O700        C710   1.277       .  A
O701        C709   1.273       .  A
O702        C711   1.274       .  A
O703        C712   1.276       .  A
O704        C711   1.275       .  A
O705        C712   1.277       .  A
O706        C713   1.275       .  A
O707        C713   1.277       .  A
C708       C1814   1.455       .  S
C709       C1760   1.464       .  S
C710       C1904   1.492       .  S
C711       C1724   1.475       .  S
C712       C1742   1.500       .  S
C713       C2588   1.475       .  S
Zn714       O718   1.966       .  S
Zn714       O719   2.066       .  S
Zn714       O723   2.030       .  S
Zn714       O730   2.023       .  S
Zn715       O718   1.958       .  S
Zn715       O720   2.005       .  S
Zn715       O722   2.013       .  S
Zn715       O726   1.997       .  S
Zn716       O718   1.939       .  S
Zn716       O721   2.011       .  S
Zn716       O724   1.998       .  S
Zn716       O727   2.041       .  S
Zn717       O718   1.966       .  S
Zn717       O725   2.089       .  S
Zn717       O728   2.011       .  S
Zn717       O729   2.030       .  S
O719        C731   1.277       .  A
O720        C732   1.271       .  A
O721        C733   1.275       .  A
O722        C731   1.272       .  A
O723        C733   1.274       .  A
O724        C732   1.273       .  A
O725        C734   1.280       .  A
O726        C735   1.270       .  A
O727        C734   1.276       .  A
O728        C735   1.275       .  A
O729        C736   1.278       .  A
O730        C736   1.276       .  A
C731       C3148   1.490       .  S
C732       C1834   1.467       .  S
C733       C2572   1.479       .  S
C734       C1744   1.499       .  S
C735       C1780   1.466       .  S
C736       C1706   1.475       .  S
Zn737       O741   1.920       .  S
Zn737       O742   1.973       .  S
Zn737       O746   1.995       .  S
Zn737       O753   2.034       .  S
Zn738       O741   1.927       .  S
Zn738       O743   2.056   1_556  S
Zn738       O745   2.018       .  S
Zn738       O749   2.017   1_556  S
Zn739       O741   1.937   1_554  S
Zn739       O744   2.018   1_554  S
Zn739       O747   2.060       .  S
Zn739       O750   1.985       .  S
Zn740       O741   1.936   1_554  S
Zn740       O748   2.041       .  S
Zn740       O751   1.974       .  S
Zn740       O752   2.051       .  S
O742        C754   1.270       .  A
O743        C755   1.277       .  A
O744        C756   1.275       .  A
O745        C754   1.275       .  A
O746        C756   1.275       .  A
O747        C755   1.276       .  A
O748        C757   1.280       .  A
O749        C758   1.276       .  A
O750        C757   1.272       .  A
O751        C758   1.273       .  A
O752        C759   1.276   1_554  A
O753        C759   1.273       .  A
C754       C1654   1.459       .  S
C755       C1688   1.498       .  S
C756       C3560   1.469       .  S
C757       C1670   1.466       .  S
C758       C1634   1.464       .  S
C759       C1798   1.493       .  S
Zn760       O764   1.964       .  S
Zn760       O765   2.071       .  S
Zn760       O769   2.034   1_554  S
Zn760       O776   2.040       .  S
Zn761       O764   1.955       .  S
Zn761       O766   2.004   1_554  S
Zn761       O768   2.047       .  S
Zn761       O772   2.000       .  S
Zn762       O764   1.946   1_556  S
Zn762       O767   1.995       .  S
Zn762       O770   2.002       .  S
Zn762       O773   2.022       .  S
Zn763       O764   1.966       .  S
Zn763       O771   2.053       .  S
Zn763       O774   1.995       .  S
Zn763       O775   2.015       .  S
O765        C777   1.279       .  A
O766        C778   1.271       .  A
O767        C779   1.271       .  A
O768        C777   1.276       .  A
O769        C779   1.277       .  A
O770        C778   1.272       .  A
O771        C780   1.276       .  A
O772        C781   1.274       .  A
O773        C780   1.273   1_556  A
O774        C781   1.269       .  A
O775        C782   1.275       .  A
O776        C782   1.279       .  A
C777       C1690   1.500       .  S
C778       C1600   1.465       .  S
C779       C3634   1.473       .  S
C780       C3020   1.487   1_554  S
C781       C1580   1.462       .  S
C782       C1616   1.477       .  S
Zn783       O787   1.940       .  S
Zn783       O788   2.026       .  S
Zn783       O792   2.026       .  S
Zn783       O799   2.002       .  S
Zn784       O787   1.930       .  S
Zn784       O789   2.080       .  S
Zn784       O791   1.966       .  S
Zn784       O795   2.004       .  S
Zn785       O787   1.899       .  S
Zn785       O790   1.968       .  S
Zn785       O793   2.027       .  S
Zn785       O796   1.979       .  S
Zn786       O787   1.964       .  S
Zn786       O794   2.043       .  S
Zn786       O797   2.033       .  S
Zn786       O798   2.089       .  S
O788        C800   1.275       .  A
O789        C801   1.278       .  A
O790        C802   1.271       .  A
O791        C800   1.271       .  A
O792        C802   1.275       .  A
O793        C801   1.273       .  A
O794        C803   1.278       .  A
O795        C804   1.277       .  A
O796        C803   1.271       .  A
O797        C804   1.278       .  A
O798        C805   1.281       .  A
O799        C805   1.273       .  A
C800       C1636   1.467       .  S
C801       C1562   1.495       .  S
C802       C1582   1.467       .  S
C803       C2842   1.467       .  S
C804       C1726   1.472       .  S
C805       C1546   1.500       .  S
Zn806       O810   1.961       .  S
Zn806       O811   2.045       .  S
Zn806       O815   1.980       .  S
Zn806       O822   2.036       .  S
Zn807       O810   1.956       .  S
Zn807       O812   1.996       .  S
Zn807       O814   2.041       .  S
Zn807       O818   2.012       .  S
Zn808       O810   1.965       .  S
Zn808       O813   2.019       .  S
Zn808       O816   2.014       .  S
Zn808       O819   2.063       .  S
Zn809       O810   1.950       .  S
Zn809       O817   2.049       .  S
Zn809       O820   2.011       .  S
Zn809       O821   2.013       .  S
O811        C823   1.276       .  A
O812        C824   1.269       .  A
O813        C825   1.277       .  A
O814        C823   1.275       .  A
O815        C825   1.269       .  A
O816        C824   1.275       .  A
O817        C826   1.276       .  A
O818        C827   1.275       .  A
O819        C826   1.277       .  A
O820        C827   1.273       .  A
O821        C828   1.275       .  A
O822        C828   1.276       .  A
C823       C3470   1.492       .  S
C824       C1598   1.467       .  S
C825       C1652   1.464       .  S
C826       C1564   1.496       .  S
C827       C2806   1.471       .  S
C828       C1708   1.479       .  S
Zn829       O833   1.953       .  S
Zn829       O834   2.020       .  S
Zn829       O838   2.024       .  S
Zn829       O845   2.008   1_655  S
Zn830       O833   1.942       .  S
Zn830       O835   1.998       .  S
Zn830       O837   1.978       .  S
Zn830       O841   2.073       .  S
Zn831       O833   1.965       .  S
Zn831       O836   2.097       .  S
Zn831       O839   2.043       .  S
Zn831       O842   2.037   1_655  S
Zn832       O833   1.928   1_455  S
Zn832       O840   2.014       .  S
Zn832       O843   2.069       .  S
Zn832       O844   1.994       .  S
O834        C846   1.274       .  A
O835        C847   1.276       .  A
O836        C848   1.282       .  A
O837        C846   1.271       .  A
O838        C848   1.273       .  A
O839        C847   1.278       .  A
O840        C849   1.277       .  A
O841        C850   1.277   1_655  A
O842        C849   1.277       .  A
O843        C850   1.278       .  A
O844        C851   1.274       .  A
O845        C851   1.273       .  A
C846       C1510   1.467       .  S
C847       C2752   1.479       .  S
C848       C2464   1.501       .  S
C849       C1618   1.477       .  S
C850       C1526   1.505       .  S
C851       C1490   1.465       .  S
Zn852       O856   1.959       .  S
Zn852       O857   2.036   1_655  S
Zn852       O861   2.089       .  S
Zn852       O868   2.028       .  S
Zn853       O856   1.939   1_455  S
Zn853       O858   1.974       .  S
Zn853       O860   1.985       .  S
Zn853       O864   2.012       .  S
Zn854       O856   1.948       .  S
Zn854       O859   2.058       .  S
Zn854       O862   1.999   1_655  S
Zn854       O865   2.007       .  S
Zn855       O856   1.967       .  S
Zn855       O863   1.992       .  S
Zn855       O866   2.083       .  S
Zn855       O867   2.016       .  S
O857        C869   1.278       .  A
O858        C870   1.268       .  A
O859        C871   1.276       .  A
O860        C869   1.270       .  A
O861        C871   1.281       .  A
O862        C870   1.273       .  A
O863        C872   1.269       .  A
O864        C873   1.270   1_455  A
O865        C872   1.276       .  A
O866        C873   1.277       .  A
O867        C874   1.276       .  A
O868        C874   1.278       .  A
C869       C1672   1.471       .  S
C870       C1438   1.460       .  S
C871       C1528   1.506       .  S
C872       C1454   1.459       .  S
C873       C1472   1.492   1_655  S
C874       C2680   1.475       .  S
Zn875       O879   1.947       .  S
Zn875       O880   2.000       .  S
Zn875       O884   2.012       .  S
Zn875       O891   2.088       .  S
Zn876       O879   1.935       .  S
Zn876       O881   2.003       .  S
Zn876       O883   1.999       .  S
Zn876       O887   2.002       .  S
Zn877       O879   1.970       .  S
Zn877       O882   2.034       .  S
Zn877       O885   2.090       .  S
Zn877       O888   2.038       .  S
Zn878       O879   1.919       .  S
Zn878       O886   1.974       .  S
Zn878       O889   1.971       .  S
Zn878       O890   2.038       .  S
O880        C892   1.273       .  A
O881        C893   1.273       .  A
O882        C894   1.278       .  A
O883        C892   1.271       .  A
O884        C894   1.279       .  A
O885        C893   1.280       .  A
O886        C895   1.272       .  A
O887        C896   1.271       .  A
O888        C895   1.275       .  A
O889        C896   1.270       .  A
O890        C897   1.274       .  A
O891        C897   1.279       .  A
C892       C1492   1.466       .  S
C893       C1544   1.500       .  S
C894       C2338   1.477       .  S
C895       C1402   1.472       .  S
C896       C1436   1.461       .  S
C897       C1418   1.501       .  S
Zn898       O902   1.947       .  S
Zn898       O903   2.072       .  S
Zn898       O907   2.020       .  S
Zn898       O914   2.021       .  S
Zn899       O902   1.950       .  S
Zn899       O904   2.010       .  S
Zn899       O906   2.023       .  S
Zn899       O910   1.994       .  S
Zn900       O902   1.916       .  S
Zn900       O905   2.006       .  S
Zn900       O908   1.993       .  S
Zn900       O911   2.045       .  S
Zn901       O902   1.950       .  S
Zn901       O909   2.090       .  S
Zn901       O912   1.999       .  S
Zn901       O913   2.018       .  S
O903        C915   1.278       .  A
O904        C916   1.272       .  A
O905        C917   1.272       .  A
O906        C915   1.272       .  A
O907        C917   1.275       .  A
O908        C916   1.275       .  A
O909        C918   1.280       .  A
O910        C919   1.273       .  A
O911        C918   1.276       .  A
O912        C919   1.271       .  A
O913        C920   1.280       .  A
O914        C920   1.277       .  A
C915       C2608   1.492       .  S
C916       C1508   1.462       .  S
C917       C2300   1.472       .  S
C918       C1420   1.502       .  S
C919       C1456   1.463       .  S
C920       C1382   1.475       .  S
Zn921       O925   1.946       .  S
Zn921       O926   2.039       .  S
Zn921       O930   2.030   1_565  S
Zn921       O937   2.024       .  S
Zn922       O925   1.963       .  S
Zn922       O927   2.050   1_565  S
Zn922       O929   2.106       .  S
Zn922       O933   2.026       .  S
Zn923       O925   1.901   1_545  S
Zn923       O928   1.965       .  S
Zn923       O931   1.989       .  S
Zn923       O934   2.052       .  S
Zn924       O925   1.948       .  S
Zn924       O932   2.113       .  S
Zn924       O935   2.018       .  S
Zn924       O936   1.969       .  S
O926        C938   1.276       .  A
O927        C939   1.278       .  A
O928        C940   1.272       .  A
O929        C938   1.282       .  A
O930        C940   1.276       .  A
O931        C939   1.274       .  A
O932        C941   1.280       .  A
O933        C942   1.277       .  A
O934        C941   1.275   1_545  A
O935        C942   1.280       .  A
O936        C943   1.271       .  A
O937        C943   1.277       .  A
C938       C3256   1.513       .  S
C939       C1346   1.479       .  S
C940       C1310   1.467       .  S
C941       C1364   1.512   1_565  S
C942       C2534   1.476       .  S
C943       C1328   1.465       .  S
Zn944       O948   1.944   1_545  S
Zn944       O949   1.991       .  S
Zn944       O953   2.038       .  S
Zn944       O960   1.972       .  S
Zn945       O948   1.966       .  S
Zn945       O950   2.034       .  S
Zn945       O952   2.049   1_565  S
Zn945       O956   2.096       .  S
Zn946       O948   1.961       .  S
Zn946       O951   2.073       .  S
Zn946       O954   2.012       .  S
Zn946       O957   1.980       .  S
Zn947       O948   1.963       .  S
Zn947       O955   2.011       .  S
Zn947       O958   2.076       .  S
Zn947       O959   2.015   1_565  S
O949        C961   1.272       .  A
O950        C962   1.279       .  A
O951        C963   1.276       .  A
O952        C961   1.279       .  A
O953        C963   1.272   1_545  A
O954        C962   1.276       .  A
O955        C964   1.276       .  A
O956        C965   1.282       .  A
O957        C964   1.268       .  A
O958        C965   1.278       .  A
O959        C966   1.274       .  A
O960        C966   1.270       .  A
C961       C1292   1.472       .  S
C962       C2428   1.475       .  S
C963       C1996   1.498       .  S
C964       C1276   1.459       .  S
C965       C1366   1.513       .  S
C966       C1258   1.463       .  S
Zn967       O971   1.940       .  S
Zn967       O972   2.018       .  S
Zn967       O976   2.008       .  S
Zn967       O983   2.005       .  S
Zn968       O971   1.911       .  S
Zn968       O973   2.043       .  S
Zn968       O975   1.975       .  S
Zn968       O979   1.980       .  S
Zn969       O971   1.945       .  S
Zn969       O974   1.986       .  S
Zn969       O977   2.097       .  S
Zn969       O980   2.028       .  S
Zn970       O971   1.972       .  S
Zn970       O978   2.043       .  S
Zn970       O981   2.038       .  S
Zn970       O982   2.107       .  S
O972        C984   1.273       .  A
O973        C985   1.275       .  A
O974        C986   1.274       .  A
O975        C984   1.271       .  A
O976        C986   1.273       .  A
O977        C985   1.280       .  A
O978        C987   1.279       .  A
O979        C988   1.274       .  A
O980        C987   1.280       .  A
O981        C988   1.277       .  A
O982        C989   1.282       .  A
O983        C989   1.271       .  A
C984       C1312   1.467       .  S
C985       C1238   1.504       .  S
C986       C1256   1.465       .  S
C987       C1888   1.482       .  S
C988       C3130   1.474       .  S
C989       C1220   1.494       .  S
Zn990       O994   1.942       .  S
Zn990       O995   1.974       .  S
Zn990       O999   2.011       .  S
Zn990      O1006   2.032       .  S
Zn991       O994   1.953       .  S
Zn991       O996   2.093       .  S
Zn991       O998   2.017       .  S
Zn991      O1002   2.016       .  S
Zn992       O994   1.931       .  S
Zn992       O997   1.998       .  S
Zn992      O1000   2.048       .  S
Zn992      O1003   1.991       .  S
Zn993       O994   1.960       .  S
Zn993      O1001   2.030       .  S
Zn993      O1004   1.972       .  S
Zn993      O1005   2.058       .  S
O995       C1007   1.268       .  A
O996       C1008   1.280       .  A
O997       C1009   1.272       .  A
O998       C1007   1.277       .  A
O999       C1009   1.275       .  A
O1000      C1008   1.275       .  A
O1001      C1010   1.278       .  A
O1002      C1011   1.277       .  A
O1003      C1010   1.272       .  A
O1004      C1011   1.268       .  A
O1005      C1012   1.276       .  A
O1006      C1012   1.273       .  A
C1007      C1330   1.462       .  S
C1008      C1240   1.503       .  S
C1009      C3076   1.466       .  S
C1010      C1870   1.467       .  S
C1011      C1274   1.458       .  S
C1012      C2354   1.492       .  S
Zn1013     O1017   1.945   1_455  S
Zn1013     O1018   2.020       .  S
Zn1013     O1022   1.989       .  S
Zn1013     O1029   2.066       .  S
Zn1014     O1017   1.955       .  S
Zn1014     O1019   2.050       .  S
Zn1014     O1021   2.022   1_655  S
Zn1014     O1025   2.005       .  S
Zn1015     O1017   1.949   1_455  S
Zn1015     O1020   2.012       .  S
Zn1015     O1023   2.018       .  S
Zn1015     O1026   2.018   1_455  S
Zn1016     O1017   1.927       .  S
Zn1016     O1024   1.995       .  S
Zn1016     O1027   1.997       .  S
Zn1016     O1028   2.042       .  S
O1018      C1030   1.278       .  A
O1019      C1031   1.275       .  A
O1020      C1032   1.275       .  A
O1021      C1030   1.275       .  A
O1022      C1032   1.271       .  A
O1023      C1031   1.273   1_455  A
O1024      C1033   1.274       .  A
O1025      C1034   1.271       .  A
O1026      C1033   1.274       .  A
O1027      C1034   1.274       .  A
O1028      C1035   1.275       .  A
O1029      C1035   1.277   1_455  A
C1030      C1348   1.477       .  S
C1031      C3580   1.487       .  S
C1032      C1166   1.463       .  S
C1033      C1184   1.468       .  S
C1034      C2266   1.467       .  S
C1035      C1202   1.495       .  S
Zn1036     O1040   1.928   1_455  S
Zn1036     O1041   1.977       .  S
Zn1036     O1045   1.977       .  S
Zn1036     O1052   2.036       .  S
Zn1037     O1040   1.956       .  S
Zn1037     O1042   2.016       .  S
Zn1037     O1044   2.020   1_655  S
Zn1037     O1048   2.008       .  S
Zn1038     O1040   1.975       .  S
Zn1038     O1043   2.054   1_655  S
Zn1038     O1046   2.088       .  S
Zn1038     O1049   2.035       .  S
Zn1039     O1040   1.949       .  S
Zn1039     O1047   2.006       .  S
Zn1039     O1050   1.991       .  S
Zn1039     O1051   2.070       .  S
O1041      C1053   1.270       .  A
O1042      C1054   1.273       .  A
O1043      C1055   1.278       .  A
O1044      C1053   1.273       .  A
O1045      C1055   1.273       .  A
O1046      C1054   1.281       .  A
O1047      C1056   1.276       .  A
O1048      C1057   1.273       .  A
O1049      C1056   1.276       .  A
O1050      C1057   1.273       .  A
O1051      C1058   1.277   1_655  A
O1052      C1058   1.273       .  A
C1053      C1130   1.470       .  S
C1054      C1474   1.498       .  S
C1055      C1294   1.477       .  S
C1056      C2194   1.478       .  S
C1057      C1150   1.464       .  S
C1058      C1204   1.496       .  S
Zn1059     O1063   1.946       .  S
Zn1059     O1064   2.063       .  S
Zn1059     O1068   2.016       .  S
Zn1059     O1075   2.001       .  S
Zn1060     O1063   1.958       .  S
Zn1060     O1065   2.020       .  S
Zn1060     O1067   2.068       .  S
Zn1060     O1071   2.005       .  S
Zn1061     O1063   1.946       .  S
Zn1061     O1066   2.001       .  S
Zn1061     O1069   1.982       .  S
Zn1061     O1072   2.019       .  S
Zn1062     O1063   1.973       .  S
Zn1062     O1070   2.090       .  S
Zn1062     O1073   2.000       .  S
Zn1062     O1074   2.050       .  S
O1064      C1076   1.278       .  A
O1065      C1077   1.274       .  A
O1066      C1078   1.271       .  A
O1067      C1076   1.277       .  A
O1068      C1078   1.275       .  A
O1069      C1077   1.271       .  A
O1070      C1079   1.280       .  A
O1071      C1080   1.276       .  A
O1072      C1079   1.272       .  A
O1073      C1080   1.270       .  A
O1074      C1081   1.281       .  A
O1075      C1081   1.273       .  A
C1076      C1114   1.501       .  S
C1077      C1132   1.467       .  S
C1078      C1400   1.468       .  S
C1079      C1222   1.494       .  S
C1080      C1168   1.462       .  S
C1081      C3454   1.477       .  S
Zn1082     O1086   1.978       .  S
Zn1082     O1087   2.089       .  S
Zn1082     O1091   2.046       .  S
Zn1082     O1098   2.042       .  S
Zn1083     O1086   1.948       .  S
Zn1083     O1088   2.010       .  S
Zn1083     O1090   2.005       .  S
Zn1083     O1094   2.001       .  S
Zn1084     O1086   1.939       .  S
Zn1084     O1089   1.984       .  S
Zn1084     O1092   1.984       .  S
Zn1084     O1095   2.060       .  S
Zn1085     O1086   1.942       .  S
Zn1085     O1093   2.068       .  S
Zn1085     O1096   2.008       .  S
Zn1085     O1097   2.017       .  S
O1087      C1099   1.280       .  A
O1088      C1100   1.271       .  A
O1089      C1101   1.271       .  A
O1090      C1099   1.272       .  A
O1091      C1101   1.278       .  A
O1092      C1100   1.272       .  A
O1093      C1102   1.278       .  A
O1094      C1103   1.272       .  A
O1095      C1102   1.276       .  A
O1096      C1103   1.274       .  A
O1097      C1104   1.278       .  A
O1098      C1104   1.278       .  A
C1099      C2122   1.498       .  S
C1100      C1148   1.464       .  S
C1101      C1384   1.470       .  S
C1102      C1112   1.502       .  S
C1103      C1186   1.468       .  S
C1104      C3400   1.482       .  S
C1105      C1113   1.509       .  S
C1105      C1106   1.410       .  A
C1105      C1110   1.409       .  A
C1106      C1107   1.410   1_455  A
C1106      H1115   1.083       .  S
C1107      C1108   1.410       .  A
C1107      H1116   1.082       .  S
C1108      C1111   1.509       .  S
C1108      C1109   1.409       .  A
C1109      C1110   1.409   1_655  A
C1109      H1117   1.083       .  S
C1110      H1118   1.082       .  S
C1111      H1119   1.087       .  S
C1111      C1112   1.357       .  D
C1112      H1120   1.085       .  S
C1113      H1121   1.086       .  S
C1113      C1114   1.357       .  D
C1114      H1122   1.085       .  S
C1123      C1131   1.471       .  S
C1123      C1124   1.402       .  A
C1123      C1128   1.403       .  A
C1124      C1125   1.395       .  A
C1124      H1133   1.084       .  S
C1125      C1126   1.404       .  A
C1125      H1134   1.083       .  S
C1126      C1129   1.471       .  S
C1126      C1127   1.402       .  A
C1127      C1128   1.393       .  A
C1127      H1135   1.084       .  S
C1128      H1136   1.083       .  S
C1129      H1137   1.087       .  S
C1129      C1130   1.346       .  D
C1130      H1138   1.086       .  S
C1131      H1139   1.087       .  S
C1131      C1132   1.345       .  D
C1132      H1140   1.087       .  S
C1141      C1149   1.474       .  S
C1141      C1142   1.401       .  A
C1141      C1146   1.405       .  A
C1142      C1143   1.394       .  A
C1142      H1151   1.083       .  S
C1143      C1144   1.405       .  A
C1143      H1152   1.082       .  S
C1144      C1147   1.473       .  S
C1144      C1145   1.401       .  A
C1145      C1146   1.392       .  A
C1145      H1153   1.083       .  S
C1146      H1154   1.082       .  S
C1147      H1155   1.088       .  S
C1147      C1148   1.344       .  D
C1148      H1156   1.085       .  S
C1149      H1157   1.087       .  S
C1149      C1150   1.344       .  D
C1150      H1158   1.085       .  S
C1159      C1167   1.470       .  S
C1159      C1160   1.398       .  A
C1159      C1164   1.407       .  A
C1160      C1161   1.392       .  A
C1160      H1169   1.084       .  S
C1161      C1162   1.407       .  A
C1161      H1170   1.082       .  S
C1162      C1165   1.477       .  S
C1162      C1163   1.400       .  A
C1163      C1164   1.395       .  A
C1163      H1171   1.083       .  S
C1164      H1172   1.082       .  S
C1165      H1173   1.087       .  S
C1165      C1166   1.343       .  D
C1166      H1174   1.086       .  S
C1167      H1175   1.088       .  S
C1167      C1168   1.335       .  D
C1168      H1176   1.086       .  S
C1177      C1185   1.478       .  S
C1177      C1178   1.402       .  A
C1177      C1182   1.406       .  A
C1178      C1179   1.395       .  A
C1178      H1187   1.084       .  S
C1179      C1180   1.406       .  A
C1179      H1188   1.081       .  S
C1180      C1183   1.478       .  S
C1180      C1181   1.402       .  A
C1181      C1182   1.394       .  A
C1181      H1189   1.084       .  S
C1182      H1190   1.082       .  S
C1183      H1191   1.088       .  S
C1183      C1184   1.346       .  D
C1184      H1192   1.085       .  S
C1185      H1193   1.088       .  S
C1185      C1186   1.345       .  D
C1186      H1194   1.085       .  S
C1195      C1203   1.511       .  S
C1195      C1196   1.408       .  A
C1195      C1200   1.412   1_655  A
C1196      C1197   1.406       .  A
C1196      H1205   1.083       .  S
C1197      C1198   1.411       .  A
C1197      H1206   1.079       .  S
C1198      C1201   1.511   1_655  S
C1198      C1199   1.408   1_655  A
C1199      C1200   1.408       .  A
C1199      H1207   1.083       .  S
C1200      H1208   1.079       .  S
C1201      H1209   1.086       .  S
C1201      C1202   1.355   1_455  D
C1202      H1210   1.082       .  S
C1203      H1211   1.087       .  S
C1203      C1204   1.354   1_655  D
C1204      H1212   1.083       .  S
C1213      C1221   1.507       .  S
C1213      C1214   1.406       .  A
C1213      C1218   1.412       .  A
C1214      C1215   1.404       .  A
C1214      H1223   1.083       .  S
C1215      C1216   1.410       .  A
C1215      H1224   1.082       .  S
C1216      C1219   1.507       .  S
C1216      C1217   1.408       .  A
C1217      C1218   1.411       .  A
C1217      H1225   1.083       .  S
C1218      H1226   1.082       .  S
C1219      H1227   1.086       .  S
C1219      C1220   1.351       .  D
C1220      H1228   1.086       .  S
C1221      H1229   1.087       .  S
C1221      C1222   1.352       .  D
C1222      H1230   1.085       .  S
C1231      C1239   1.512       .  S
C1231      C1232   1.408       .  A
C1231      C1236   1.410       .  A
C1232      C1233   1.410   1_565  A
C1232      H1241   1.083       .  S
C1233      C1234   1.411       .  A
C1233      H1242   1.082       .  S
C1234      C1237   1.514       .  S
C1234      C1235   1.410       .  A
C1235      C1236   1.412   1_545  A
C1235      H1243   1.083       .  S
C1236      H1244   1.082       .  S
C1237      H1245   1.086       .  S
C1237      C1238   1.356       .  D
C1238      H1246   1.085       .  S
C1239      H1247   1.086       .  S
C1239      C1240   1.355       .  D
C1240      H1248   1.086       .  S
C1249      C1257   1.465       .  S
C1249      C1250   1.400       .  A
C1249      C1254   1.402       .  A
C1250      C1251   1.394       .  A
C1250      H1259   1.083       .  S
C1251      C1252   1.405       .  A
C1251      H1260   1.083       .  S
C1252      C1255   1.468       .  S
C1252      C1253   1.401       .  A
C1253      C1254   1.391       .  A
C1253      H1261   1.084       .  S
C1254      H1262   1.083       .  S
C1255      H1263   1.088       .  S
C1255      C1256   1.344       .  D
C1256      H1264   1.086       .  S
C1257      H1265   1.086       .  S
C1257      C1258   1.344       .  D
C1258      H1266   1.087       .  S
C1267      C1275   1.466       .  S
C1267      C1268   1.397       .  A
C1267      C1272   1.407       .  A
C1268      C1269   1.390       .  A
C1268      H1277   1.084       .  S
C1269      C1270   1.407       .  A
C1269      H1278   1.083       .  S
C1270      C1273   1.467       .  S
C1270      C1271   1.398       .  A
C1271      C1272   1.392       .  A
C1271      H1279   1.083       .  S
C1272      H1280   1.083       .  S
C1273      H1281   1.088       .  S
C1273      C1274   1.334       .  D
C1274      H1282   1.087       .  S
C1275      H1283   1.088       .  S
C1275      C1276   1.334       .  D
C1276      H1284   1.087       .  S
C1285      C1293   1.479       .  S
C1285      C1286   1.402       .  A
C1285      C1290   1.407       .  A
C1286      C1287   1.394       .  A
C1286      H1295   1.084       .  S
C1287      C1288   1.406       .  A
C1287      H1296   1.082       .  S
C1288      C1291   1.484       .  S
C1288      C1289   1.404       .  A
C1289      C1290   1.401       .  A
C1289      H1297   1.083       .  S
C1290      H1298   1.082       .  S
C1291      H1299   1.087       .  S
C1291      C1292   1.342       .  D
C1292      H1300   1.087       .  S
C1293      H1301   1.088       .  S
C1293      C1294   1.346       .  D
C1294      H1302   1.086       .  S
C1303      C1311   1.470       .  S
C1303      C1304   1.402       .  A
C1303      C1308   1.403       .  A
C1304      C1305   1.393       .  A
C1304      H1313   1.084       .  S
C1305      C1306   1.402       .  A
C1305      H1314   1.083       .  S
C1306      C1309   1.469       .  S
C1306      C1307   1.402       .  A
C1307      C1308   1.393       .  A
C1307      H1315   1.084       .  S
C1308      H1316   1.082       .  S
C1309      H1317   1.088       .  S
C1309      C1310   1.346       .  D
C1310      H1318   1.086       .  S
C1311      H1319   1.088       .  S
C1311      C1312   1.346       .  D
C1312      H1320   1.086       .  S
C1321      C1329   1.478       .  S
C1321      C1322   1.402       .  A
C1321      C1326   1.410       .  A
C1322      C1323   1.394       .  A
C1322      H1331   1.084       .  S
C1323      C1324   1.401       .  A
C1323      H1332   1.084       .  S
C1324      C1327   1.467       .  S
C1324      C1325   1.399       .  A
C1325      C1326   1.390       .  A
C1325      H1333   1.083       .  S
C1326      H1334   1.080       .  S
C1327      H1335   1.087       .  S
C1327      C1328   1.347       .  D
C1328      H1336   1.086       .  S
C1329      H1337   1.089       .  S
C1329      C1330   1.338       .  D
C1330      H1338   1.085       .  S
C1339      C1347   1.486       .  S
C1339      C1340   1.410       .  A
C1339      C1344   1.402       .  A
C1340      C1341   1.402       .  A
C1340      H1349   1.080       .  S
C1341      C1342   1.407       .  A
C1341      H1350   1.081       .  S
C1342      C1345   1.483       .  S
C1342      C1343   1.402       .  A
C1343      C1344   1.393       .  A
C1343      H1351   1.084       .  S
C1344      H1352   1.084       .  S
C1345      H1353   1.088       .  S
C1345      C1346   1.348       .  D
C1346      H1354   1.085       .  S
C1347      H1355   1.088       .  S
C1347      C1348   1.345       .  D
C1348      H1356   1.084       .  S
C1357      C1365   1.520       .  S
C1357      C1358   1.411   1_565  A
C1357      C1362   1.411       .  A
C1358      C1359   1.412       .  A
C1358      H1367   1.083       .  S
C1359      C1360   1.411   1_545  A
C1359      H1368   1.082       .  S
C1360      C1363   1.522       .  S
C1360      C1361   1.412       .  A
C1361      C1362   1.416       .  A
C1361      H1369   1.083       .  S
C1362      H1370   1.082       .  S
C1363      H1371   1.087       .  S
C1363      C1364   1.360   1_565  D
C1364      H1372   1.086       .  S
C1365      H1373   1.086       .  S
C1365      C1366   1.363       .  D
C1366      H1374   1.085       .  S
C1375      C1383   1.485       .  S
C1375      C1376   1.403       .  A
C1375      C1380   1.407       .  A
C1376      C1377   1.402       .  A
C1376      H1385   1.083       .  S
C1377      C1378   1.408       .  A
C1377      H1386   1.081       .  S
C1378      C1381   1.482       .  S
C1378      C1379   1.401       .  A
C1379      C1380   1.392       .  A
C1379      H1387   1.084       .  S
C1380      H1388   1.082       .  S
C1381      H1389   1.088       .  S
C1381      C1382   1.344       .  D
C1382      H1390   1.086       .  S
C1383      H1391   1.087       .  S
C1383      C1384   1.344       .  D
C1384      H1392   1.086       .  S
C1393      C1401   1.476       .  S
C1393      C1394   1.402       .  A
C1393      C1398   1.406       .  A
C1394      C1395   1.394       .  A
C1394      H1403   1.084       .  S
C1395      C1396   1.405       .  A
C1395      H1404   1.082       .  S
C1396      C1399   1.477       .  S
C1396      C1397   1.402       .  A
C1397      C1398   1.397       .  A
C1397      H1405   1.084       .  S
C1398      H1406   1.082       .  S
C1399      H1407   1.087       .  S
C1399      C1400   1.342       .  D
C1400      H1408   1.086       .  S
C1401      H1409   1.088       .  S
C1401      C1402   1.345       .  D
C1402      H1410   1.085       .  S
C1411      C1419   1.515       .  S
C1411      C1412   1.409       .  A
C1411      C1416   1.411       .  A
C1412      C1413   1.410   1_655  A
C1412      H1421   1.083       .  S
C1413      C1414   1.413       .  A
C1413      H1422   1.079       .  S
C1414      C1417   1.517       .  S
C1414      C1415   1.409       .  A
C1415      C1416   1.409   1_455  A
C1415      H1423   1.083       .  S
C1416      H1424   1.080       .  S
C1417      H1425   1.087       .  S
C1417      C1418   1.357       .  D
C1418      H1426   1.082       .  S
C1419      H1427   1.086       .  S
C1419      C1420   1.357       .  D
C1420      H1428   1.084       .  S
C1429      C1437   1.466       .  S
C1429      C1430   1.397       .  A
C1429      C1434   1.406       .  A
C1430      C1431   1.389       .  A
C1430      H1439   1.084       .  S
C1431      C1432   1.406       .  A
C1431      H1440   1.082       .  S
C1432      C1435   1.467       .  S
C1432      C1433   1.400       .  A
C1433      C1434   1.394       .  A
C1433      H1441   1.084       .  S
C1434      H1442   1.083       .  S
C1435      H1443   1.087       .  S
C1435      C1436   1.342       .  D
C1436      H1444   1.087       .  S
C1437      H1445   1.088       .  S
C1437      C1438   1.337       .  D
C1438      H1446   1.087       .  S
C1447      C1455   1.473       .  S
C1447      C1448   1.400       .  A
C1447      C1452   1.405       .  A
C1448      C1449   1.394       .  A
C1448      H1457   1.084       .  S
C1449      C1450   1.407       .  A
C1449      H1458   1.082       .  S
C1450      C1453   1.471       .  S
C1450      C1451   1.400       .  A
C1451      C1452   1.392       .  A
C1451      H1459   1.084       .  S
C1452      H1460   1.082       .  S
C1453      H1461   1.089       .  S
C1453      C1454   1.336       .  D
C1454      H1462   1.085       .  S
C1455      H1463   1.087       .  S
C1455      C1456   1.343       .  D
C1456      H1464   1.086       .  S
C1465      C1473   1.500       .  S
C1465      C1466   1.405   1_655  A
C1465      C1470   1.409       .  A
C1466      C1467   1.401       .  A
C1466      H1475   1.083       .  S
C1467      C1468   1.409   1_455  A
C1467      H1476   1.082       .  S
C1468      C1471   1.505       .  S
C1468      C1469   1.409       .  A
C1469      C1470   1.412       .  A
C1469      H1477   1.083       .  S
C1470      H1478   1.082       .  S
C1471      H1479   1.086       .  S
C1471      C1472   1.352   1_655  D
C1472      H1480   1.086       .  S
C1473      H1481   1.087   1_655  S
C1473      C1474   1.356       .  D
C1474      H1482   1.086       .  S
C1483      C1491   1.475       .  S
C1483      C1484   1.401       .  A
C1483      C1488   1.406       .  A
C1484      C1485   1.394       .  A
C1484      H1493   1.084       .  S
C1485      C1486   1.405       .  A
C1485      H1494   1.082       .  S
C1486      C1489   1.474       .  S
C1486      C1487   1.401       .  A
C1487      C1488   1.393       .  A
C1487      H1495   1.084       .  S
C1488      H1496   1.082       .  S
C1489      H1497   1.088       .  S
C1489      C1490   1.344       .  D
C1490      H1498   1.085       .  S
C1491      H1499   1.087       .  S
C1491      C1492   1.344       .  D
C1492      H1500   1.085       .  S
C1501      C1509   1.470       .  S
C1501      C1502   1.402       .  A
C1501      C1506   1.402       .  A
C1502      C1503   1.394       .  A
C1502      H1511   1.084       .  S
C1503      C1504   1.405       .  A
C1503      H1512   1.082       .  S
C1504      C1507   1.473       .  S
C1504      C1505   1.402       .  A
C1505      C1506   1.392       .  A
C1505      H1513   1.084       .  S
C1506      H1514   1.083       .  S
C1507      H1515   1.089       .  S
C1507      C1508   1.343       .  D
C1508      H1516   1.084       .  S
C1509      H1517   1.087       .  S
C1509      C1510   1.347       .  D
C1510      H1518   1.086       .  S
C1519      C1527   1.511       .  S
C1519      C1520   1.409   1_655  A
C1519      C1524   1.409       .  A
C1520      C1521   1.409       .  A
C1520      H1529   1.083       .  S
C1521      C1522   1.409   1_455  A
C1521      H1530   1.082       .  S
C1522      C1525   1.514       .  S
C1522      C1523   1.412       .  A
C1523      C1524   1.414       .  A
C1523      H1531   1.083       .  S
C1524      H1532   1.082       .  S
C1525      H1533   1.087       .  S
C1525      C1526   1.359   1_655  D
C1526      H1534   1.085       .  S
C1527      H1535   1.087       .  S
C1527      C1528   1.359       .  D
C1528      H1536   1.085       .  S
C1537      C1545   1.500       .  S
C1537      C1538   1.413       .  A
C1537      C1542   1.403       .  A
C1538      C1539   1.417       .  A
C1538      H1547   1.081       .  S
C1539      C1540   1.413       .  A
C1539      H1548   1.081       .  S
C1540      C1543   1.501       .  S
C1540      C1541   1.403       .  A
C1541      C1542   1.392       .  A
C1541      H1549   1.083       .  S
C1542      H1550   1.084       .  S
C1543      H1551   1.087       .  S
C1543      C1544   1.356       .  D
C1544      H1552   1.084       .  S
C1545      H1553   1.087       .  S
C1545      C1546   1.356       .  D
C1546      H1554   1.085       .  S
C1555      C1563   1.504       .  S
C1555      C1556   1.406       .  A
C1555      C1560   1.410       .  A
C1556      C1557   1.405   1_556  A
C1556      H1565   1.083       .  S
C1557      C1558   1.409       .  A
C1557      H1566   1.082       .  S
C1558      C1561   1.505       .  S
C1558      C1559   1.408       .  A
C1559      C1560   1.409   1_554  A
C1559      H1567   1.083       .  S
C1560      H1568   1.082       .  S
C1561      H1569   1.086       .  S
C1561      C1562   1.352       .  D
C1562      H1570   1.086       .  S
C1563      H1571   1.087       .  S
C1563      C1564   1.353       .  D
C1564      H1572   1.085       .  S
C1573      C1581   1.468       .  S
C1573      C1574   1.401       .  A
C1573      C1578   1.402       .  A
C1574      C1575   1.393       .  A
C1574      H1583   1.083       .  S
C1575      C1576   1.400       .  A
C1575      H1584   1.084       .  S
C1576      C1579   1.471       .  S
C1576      C1577   1.407       .  A
C1577      C1578   1.393       .  A
C1577      H1585   1.082       .  S
C1578      H1586   1.083       .  S
C1579      H1587   1.088       .  S
C1579      C1580   1.337       .  D
C1580      H1588   1.086       .  S
C1581      H1589   1.087       .  S
C1581      C1582   1.347       .  D
C1582      H1590   1.086       .  S
C1591      C1599   1.471       .  S
C1591      C1592   1.403       .  A
C1591      C1596   1.401       .  A
C1592      C1593   1.395       .  A
C1592      H1601   1.083       .  S
C1593      C1594   1.407       .  A
C1593      H1602   1.083       .  S
C1594      C1597   1.474       .  S
C1594      C1595   1.400       .  A
C1595      C1596   1.395       .  A
C1595      H1603   1.083       .  S
C1596      H1604   1.084       .  S
C1597      H1605   1.087       .  S
C1597      C1598   1.339       .  D
C1598      H1606   1.086       .  S
C1599      H1607   1.087       .  S
C1599      C1600   1.342       .  D
C1600      H1608   1.087       .  S
C1609      C1617   1.483       .  S
C1609      C1610   1.403       .  A
C1609      C1614   1.407       .  A
C1610      C1611   1.399       .  A
C1610      H1619   1.083       .  S
C1611      C1612   1.407       .  A
C1611      H1620   1.083       .  S
C1612      C1615   1.484       .  S
C1612      C1613   1.403       .  A
C1613      C1614   1.400       .  A
C1613      H1621   1.083       .  S
C1614      H1622   1.083       .  S
C1615      H1623   1.087       .  S
C1615      C1616   1.344       .  D
C1616      H1624   1.087       .  S
C1617      H1625   1.087       .  S
C1617      C1618   1.345       .  D
C1618      H1626   1.086       .  S
C1627      C1635   1.468       .  S
C1627      C1628   1.402       .  A
C1627      C1632   1.403       .  A
C1628      C1629   1.392       .  A
C1628      H1637   1.084       .  S
C1629      C1630   1.402       .  A
C1629      H1638   1.083       .  S
C1630      C1633   1.465       .  S
C1630      C1631   1.401       .  A
C1631      C1632   1.393       .  A
C1631      H1639   1.084       .  S
C1632      H1640   1.083       .  S
C1633      H1641   1.087       .  S
C1633      C1634   1.344       .  D
C1634      H1642   1.087       .  S
C1635      H1643   1.088       .  S
C1635      C1636   1.347       .  D
C1636      H1644   1.086       .  S
C1645      C1653   1.463       .  S
C1645      C1646   1.398       .  A
C1645      C1650   1.400       .  A
C1646      C1647   1.390       .  A
C1646      H1655   1.084       .  S
C1647      C1648   1.410       .  A
C1647      H1656   1.081       .  S
C1648      C1651   1.476       .  S
C1648      C1649   1.402       .  A
C1649      C1650   1.395       .  A
C1649      H1657   1.083       .  S
C1650      H1658   1.083       .  S
C1651      H1659   1.087       .  S
C1651      C1652   1.338       .  D
C1652      H1660   1.086       .  S
C1653      H1661   1.087       .  S
C1653      C1654   1.344       .  D
C1654      H1662   1.088       .  S
C1663      C1671   1.485       .  S
C1663      C1664   1.400       .  A
C1663      C1668   1.412       .  A
C1664      C1665   1.392       .  A
C1664      H1673   1.084       .  S
C1665      C1666   1.408       .  A
C1665      H1674   1.082       .  S
C1666      C1669   1.483       .  S
C1666      C1667   1.400       .  A
C1667      C1668   1.399       .  A
C1667      H1675   1.083       .  S
C1668      H1676   1.080       .  S
C1669      H1677   1.087       .  S
C1669      C1670   1.340       .  D
C1670      H1678   1.086       .  S
C1671      H1679   1.088       .  S
C1671      C1672   1.341       .  D
C1672      H1680   1.084       .  S
C1681      C1689   1.509       .  S
C1681      C1682   1.408       .  A
C1681      C1686   1.410       .  A
C1682      C1683   1.406       .  A
C1682      H1691   1.083       .  S
C1683      C1684   1.410       .  A
C1683      H1692   1.080       .  S
C1684      C1687   1.511       .  S
C1684      C1685   1.410       .  A
C1685      C1686   1.410       .  A
C1685      H1693   1.083   1_554  S
C1686      H1694   1.080   1_554  S
C1687      H1695   1.086       .  S
C1687      C1688   1.357       .  D
C1688      H1696   1.083       .  S
C1689      H1697   1.086       .  S
C1689      C1690   1.358       .  D
C1690      H1698   1.083       .  S
C1699      C1707   1.483       .  S
C1699      C1700   1.403       .  A
C1699      C1704   1.407       .  A
C1700      C1701   1.397       .  A
C1700      H1709   1.084       .  S
C1701      C1702   1.406       .  A
C1701      H1710   1.082       .  S
C1702      C1705   1.484       .  S
C1702      C1703   1.404       .  A
C1703      C1704   1.401       .  A
C1703      H1711   1.083       .  S
C1704      H1712   1.082       .  S
C1705      H1713   1.087       .  S
C1705      C1706   1.344       .  D
C1706      H1714   1.086       .  S
C1707      H1715   1.088       .  S
C1707      C1708   1.346       .  D
C1708      H1716   1.086       .  S
C1717      C1725   1.479       .  S
C1717      C1718   1.403       .  A
C1717      C1722   1.405       .  A
C1718      C1719   1.399       .  A
C1718      H1727   1.083       .  S
C1719      C1720   1.406       .  A
C1719      H1728   1.082       .  S
C1720      C1723   1.480       .  S
C1720      C1721   1.403       .  A
C1721      C1722   1.395       .  A
C1721      H1729   1.083       .  S
C1722      H1730   1.083       .  S
C1723      H1731   1.088       .  S
C1723      C1724   1.345       .  D
C1724      H1732   1.085       .  S
C1725      H1733   1.087       .  S
C1725      C1726   1.344       .  D
C1726      H1734   1.086       .  S
C1735      C1743   1.510       .  S
C1735      C1736   1.409       .  A
C1735      C1740   1.410       .  A
C1736      C1737   1.410   1_556  A
C1736      H1745   1.083       .  S
C1737      C1738   1.411       .  A
C1737      H1746   1.081       .  S
C1738      C1741   1.510       .  S
C1738      C1739   1.408   1_554  A
C1739      C1740   1.407       .  A
C1739      H1747   1.083   1_556  S
C1740      H1748   1.082       .  S
C1741      H1749   1.087       .  S
C1741      C1742   1.357       .  D
C1742      H1750   1.085       .  S
C1743      H1751   1.086       .  S
C1743      C1744   1.355       .  D
C1744      H1752   1.085       .  S
C1753      C1761   1.471       .  S
C1753      C1754   1.400       .  A
C1753      C1758   1.406       .  A
C1754      C1755   1.395       .  A
C1754      H1763   1.083       .  S
C1755      C1756   1.403       .  A
C1755      H1764   1.084       .  S
C1756      C1759   1.471       .  S
C1756      C1757   1.403       .  A
C1757      C1758   1.391       .  A
C1757      H1765   1.083       .  S
C1758      H1766   1.083       .  S
C1759      H1767   1.087       .  S
C1759      C1760   1.345       .  D
C1760      H1768   1.087       .  S
C1761      H1769   1.088       .  S
C1761      C1762   1.343       .  D
C1762      H1770   1.086       .  S
C1771      C1779   1.481       .  S
C1771      C1772   1.402       .  A
C1771      C1776   1.408       .  A
C1772      C1773   1.394       .  A
C1772      H1781   1.083       .  S
C1773      C1774   1.406       .  A
C1773      H1782   1.082       .  S
C1774      C1777   1.479       .  S
C1774      C1775   1.401       .  A
C1775      C1776   1.395       .  A
C1775      H1783   1.084       .  S
C1776      H1784   1.080       .  S
C1777      H1785   1.087       .  S
C1777      C1778   1.344       .  D
C1778      H1786   1.084       .  S
C1779      H1787   1.087       .  S
C1779      C1780   1.343       .  D
C1780      H1788   1.082       .  S
C1789      C1797   1.503       .  S
C1789      C1790   1.406       .  A
C1789      C1794   1.411   1_554  A
C1790      C1791   1.401       .  A
C1790      H1799   1.083       .  S
C1791      C1792   1.408       .  A
C1791      H1800   1.082       .  S
C1792      C1795   1.505       .  S
C1792      C1793   1.408   1_554  A
C1793      C1794   1.410       .  A
C1793      H1801   1.083       .  S
C1794      H1802   1.081       .  S
C1795      H1803   1.086   1_554  S
C1795      C1796   1.351       .  D
C1796      H1804   1.085       .  S
C1797      H1805   1.087       .  S
C1797      C1798   1.353   1_554  D
C1798      H1806   1.085       .  S
C1807      C1815   1.470       .  S
C1807      C1808   1.400       .  A
C1807      C1812   1.404       .  A
C1808      C1809   1.397       .  A
C1808      H1817   1.083       .  S
C1809      C1810   1.403       .  A
C1809      H1818   1.083       .  S
C1810      C1813   1.472       .  S
C1810      C1811   1.403       .  A
C1811      C1812   1.392       .  A
C1811      H1819   1.083       .  S
C1812      H1820   1.083       .  S
C1813      H1821   1.088       .  S
C1813      C1814   1.343       .  D
C1814      H1822   1.087       .  S
C1815      H1823   1.087       .  S
C1815      C1816   1.345       .  D
C1816      H1824   1.088       .  S
C1825      C1833   1.477       .  S
C1825      C1826   1.402       .  A
C1825      C1830   1.406       .  A
C1826      C1827   1.393       .  A
C1826      H1835   1.084       .  S
C1827      C1828   1.405       .  A
C1827      H1836   1.082       .  S
C1828      C1831   1.475       .  S
C1828      C1829   1.402       .  A
C1829      C1830   1.394       .  A
C1829      H1837   1.083       .  S
C1830      H1838   1.082       .  S
C1831      H1839   1.087       .  S
C1831      C1832   1.346       .  D
C1832      H1840   1.085       .  S
C1833      H1841   1.088       .  S
C1833      C1834   1.345       .  D
C1834      H1842   1.084       .  S
C1843      C1851   1.515       .  S
C1843      C1844   1.409       .  A
C1843      C1848   1.412   1_556  A
C1844      C1845   1.409       .  A
C1844      H1853   1.083       .  S
C1845      C1846   1.412   1_556  A
C1845      H1854   1.080       .  S
C1846      C1849   1.517       .  S
C1846      C1847   1.411       .  A
C1847      C1848   1.410       .  A
C1847      H1855   1.083       .  S
C1848      H1856   1.081       .  S
C1849      H1857   1.087       .  S
C1849      C1850   1.359   1_554  D
C1850      H1858   1.083       .  S
C1851      H1859   1.086       .  S
C1851      C1852   1.357   1_556  D
C1852      H1860   1.083       .  S
C1861      C1869   1.481       .  S
C1861      C1862   1.402       .  A
C1861      C1866   1.407       .  A
C1862      C1863   1.401       .  A
C1862      H1871   1.083       .  S
C1863      C1864   1.408       .  A
C1863      H1872   1.082       .  S
C1864      C1867   1.478       .  S
C1864      C1865   1.399       .  A
C1865      C1866   1.391       .  A
C1865      H1873   1.084       .  S
C1866      H1874   1.082       .  S
C1867      H1875   1.087       .  S
C1867      C1868   1.343       .  D
C1868      H1876   1.086       .  S
C1869      H1877   1.087       .  S
C1869      C1870   1.342       .  D
C1870      H1878   1.087       .  S
C1879      C1887   1.489       .  S
C1879      C1880   1.402       .  A
C1879      C1884   1.408       .  A
C1880      C1881   1.397       .  A
C1880      H1889   1.084       .  S
C1881      C1882   1.409       .  A
C1881      H1890   1.081       .  S
C1882      C1885   1.493       .  S
C1882      C1883   1.405       .  A
C1883      C1884   1.403       .  A
C1883      H1891   1.083       .  S
C1884      H1892   1.081       .  S
C1885      H1893   1.087       .  S
C1885      C1886   1.347       .  D
C1886      H1894   1.085       .  S
C1887      H1895   1.087       .  S
C1887      C1888   1.347       .  D
C1888      H1896   1.085       .  S
C1897      C1905   1.500       .  S
C1897      C1898   1.407       .  A
C1897      C1902   1.408       .  A
C1898      C1899   1.404       .  A
C1898      H1907   1.084       .  S
C1899      C1900   1.408       .  A
C1899      H1908   1.081       .  S
C1900      C1903   1.500       .  S
C1900      C1901   1.408       .  A
C1901      C1902   1.405       .  A
C1901      H1909   1.083       .  S
C1902      H1910   1.081       .  S
C1903      H1911   1.086       .  S
C1903      C1904   1.354       .  D
C1904      H1912   1.084       .  S
C1905      H1913   1.087       .  S
C1905      C1906   1.355       .  D
C1906      H1914   1.085       .  S
C1915      C1923   1.509       .  S
C1915      C1916   1.408       .  A
C1915      C1920   1.410       .  A
C1916      C1917   1.407   1_545  A
C1916      H1925   1.083       .  S
C1917      C1918   1.410       .  A
C1917      H1926   1.082       .  S
C1918      C1921   1.512       .  S
C1918      C1919   1.410       .  A
C1919      C1920   1.412   1_565  A
C1919      H1927   1.083       .  S
C1920      H1928   1.082       .  S
C1921      H1929   1.086       .  S
C1921      C1922   1.356       .  D
C1922      H1930   1.085       .  S
C1923      H1931   1.087       .  S
C1923      C1924   1.357       .  D
C1924      H1932   1.086       .  S
C1933      C1941   1.463       .  S
C1933      C1934   1.399       .  A
C1933      C1938   1.400       .  A
C1934      C1935   1.391       .  A
C1934      H1943   1.084       .  S
C1935      C1936   1.410       .  A
C1935      H1944   1.081       .  S
C1936      C1939   1.477       .  S
C1936      C1937   1.402       .  A
C1937      C1938   1.395       .  A
C1937      H1945   1.084       .  S
C1938      H1946   1.084       .  S
C1939      H1947   1.087       .  S
C1939      C1940   1.337       .  D
C1940      H1948   1.085       .  S
C1941      H1949   1.087       .  S
C1941      C1942   1.344       .  D
C1942      H1950   1.088       .  S
C1951      C1959   1.470       .  S
C1951      C1952   1.401       .  A
C1951      C1956   1.403       .  A
C1952      C1953   1.395       .  A
C1952      H1961   1.083       .  S
C1953      C1954   1.405       .  A
C1953      H1962   1.082       .  S
C1954      C1957   1.472       .  S
C1954      C1955   1.402       .  A
C1955      C1956   1.392       .  A
C1955      H1963   1.084       .  S
C1956      H1964   1.083       .  S
C1957      H1965   1.087       .  S
C1957      C1958   1.345       .  D
C1958      H1966   1.085       .  S
C1959      H1967   1.087       .  S
C1959      C1960   1.345       .  D
C1960      H1968   1.087       .  S
C1969      C1977   1.489       .  S
C1969      C1970   1.404       .  A
C1969      C1974   1.410       .  A
C1970      C1971   1.393       .  A
C1970      H1979   1.083       .  S
C1971      C1972   1.404       .  A
C1971      H1980   1.083       .  S
C1972      C1975   1.485       .  S
C1972      C1973   1.404       .  A
C1973      C1974   1.405       .  A
C1973      H1981   1.083       .  S
C1974      H1982   1.080       .  S
C1975      H1983   1.087       .  S
C1975      C1976   1.345       .  D
C1976      H1984   1.087       .  S
C1977      H1985   1.087       .  S
C1977      C1978   1.349       .  D
C1978      H1986   1.083       .  S
C1987      C1995   1.510       .  S
C1987      C1988   1.413   1_565  A
C1987      C1992   1.406       .  A
C1988      C1989   1.414       .  A
C1988      H1997   1.081       .  S
C1989      C1990   1.413   1_545  A
C1989      H1998   1.080       .  S
C1990      C1993   1.511       .  S
C1990      C1991   1.407       .  A
C1991      C1992   1.403       .  A
C1991      H1999   1.083       .  S
C1992      H2000   1.083       .  S
C1993      H2001   1.087       .  S
C1993      C1994   1.357   1_565  D
C1994      H2002   1.083       .  S
C1995      H2003   1.087       .  S
C1995      C1996   1.354       .  D
C1996      H2004   1.084   1_565  S
C2005      C2013   1.471       .  S
C2005      C2006   1.405       .  A
C2005      C2010   1.399       .  A
C2006      C2007   1.395       .  A
C2006      H2015   1.082       .  S
C2007      C2008   1.408       .  A
C2007      H2016   1.080       .  S
C2008      C2011   1.476       .  S
C2008      C2009   1.402       .  A
C2009      C2010   1.389       .  A
C2009      H2017   1.084       .  S
C2010      H2018   1.084       .  S
C2011      H2019   1.089       .  S
C2011      C2012   1.341       .  D
C2012      H2020   1.083       .  S
C2013      H2021   1.088       .  S
C2013      C2014   1.339       .  D
C2014      H2022   1.086       .  S
C2023      C2031   1.474       .  S
C2023      C2024   1.401       .  A
C2023      C2028   1.407       .  A
C2024      C2025   1.392       .  A
C2024      H2033   1.084       .  S
C2025      C2026   1.403       .  A
C2025      H2034   1.083       .  S
C2026      C2029   1.468       .  S
C2026      C2027   1.400       .  A
C2027      C2028   1.396       .  A
C2027      H2035   1.084       .  S
C2028      H2036   1.082       .  S
C2029      H2037   1.087       .  S
C2029      C2030   1.343       .  D
C2030      H2038   1.088       .  S
C2031      H2039   1.088       .  S
C2031      C2032   1.343       .  D
C2032      H2040   1.085       .  S
C2041      C2049   1.489       .  S
C2041      C2042   1.404       .  A
C2041      C2046   1.408       .  A
C2042      C2043   1.402       .  A
C2042      H2051   1.083       .  S
C2043      C2044   1.409       .  A
C2043      H2052   1.082       .  S
C2044      C2047   1.487       .  S
C2044      C2045   1.402       .  A
C2045      C2046   1.396       .  A
C2045      H2053   1.083       .  S
C2046      H2054   1.082       .  S
C2047      H2055   1.087       .  S
C2047      C2048   1.346       .  D
C2048      H2056   1.085       .  S
C2049      H2057   1.086       .  S
C2049      C2050   1.345       .  D
C2050      H2058   1.086       .  S
C2059      C2067   1.520       .  S
C2059      C2060   1.412       .  A
C2059      C2064   1.412       .  A
C2060      C2061   1.413       .  A
C2060      H2069   1.083       .  S
C2061      C2062   1.410       .  A
C2061      H2070   1.081   1_545  S
C2062      C2065   1.517       .  S
C2062      C2063   1.410       .  A
C2063      C2064   1.410       .  A
C2063      H2071   1.084       .  S
C2064      H2072   1.079       .  S
C2065      H2073   1.087       .  S
C2065      C2066   1.361       .  D
C2066      H2074   1.084       .  S
C2067      H2075   1.086       .  S
C2067      C2068   1.361       .  D
C2068      H2076   1.082       .  S
C2077      C2085   1.491       .  S
C2077      C2078   1.410       .  A
C2077      C2082   1.402       .  A
C2078      C2079   1.406       .  A
C2078      H2087   1.081       .  S
C2079      C2080   1.409       .  A
C2079      H2088   1.081       .  S
C2080      C2083   1.490       .  S
C2080      C2081   1.403       .  A
C2081      C2082   1.395       .  A
C2081      H2089   1.083       .  S
C2082      H2090   1.084       .  S
C2083      H2091   1.087       .  S
C2083      C2084   1.351       .  D
C2084      H2092   1.085       .  S
C2085      H2093   1.088       .  S
C2085      C2086   1.347       .  D
C2086      H2094   1.085       .  S
C2095      C2103   1.475       .  S
C2095      C2096   1.402       .  A
C2095      C2100   1.405       .  A
C2096      C2097   1.397       .  A
C2096      H2105   1.083       .  S
C2097      C2098   1.405       .  A
C2097      H2106   1.083       .  S
C2098      C2101   1.471       .  S
C2098      C2099   1.399       .  A
C2099      C2100   1.392       .  A
C2099      H2107   1.083       .  S
C2100      H2108   1.083       .  S
C2101      H2109   1.088       .  S
C2101      C2102   1.341       .  D
C2102      H2110   1.086       .  S
C2103      H2111   1.087       .  S
C2103      C2104   1.341       .  D
C2104      H2112   1.086       .  S
C2113      C2121   1.499       .  S
C2113      C2114   1.405       .  A
C2113      C2118   1.411       .  A
C2114      C2115   1.397       .  A
C2114      H2123   1.084       .  S
C2115      C2116   1.406       .  A
C2115      H2124   1.083       .  S
C2116      C2119   1.503       .  S
C2116      C2117   1.410       .  A
C2117      C2118   1.414       .  A
C2117      H2125   1.082       .  S
C2118      H2126   1.082       .  S
C2119      H2127   1.085       .  S
C2119      C2120   1.351       .  D
C2120      H2128   1.087       .  S
C2121      H2129   1.087       .  S
C2121      C2122   1.356       .  D
C2122      H2130   1.085       .  S
C2131      C2139   1.517       .  S
C2131      C2132   1.410       .  A
C2131      C2136   1.412       .  A
C2132      C2133   1.410   1_545  A
C2132      H2141   1.083       .  S
C2133      C2134   1.412       .  A
C2133      H2142   1.080       .  S
C2134      C2137   1.517       .  S
C2134      C2135   1.410       .  A
C2135      C2136   1.411   1_565  A
C2135      H2143   1.083       .  S
C2136      H2144   1.080       .  S
C2137      H2145   1.086       .  S
C2137      C2138   1.358       .  D
C2138      H2146   1.083       .  S
C2139      H2147   1.086       .  S
C2139      C2140   1.359       .  D
C2140      H2148   1.083       .  S
C2149      C2157   1.471       .  S
C2149      C2150   1.401       .  A
C2149      C2154   1.403       .  A
C2150      C2151   1.394       .  A
C2150      H2159   1.083       .  S
C2151      C2152   1.406       .  A
C2151      H2160   1.081       .  S
C2152      C2155   1.475       .  S
C2152      C2153   1.402       .  A
C2153      C2154   1.392       .  A
C2153      H2161   1.084       .  S
C2154      H2162   1.083       .  S
C2155      H2163   1.088       .  S
C2155      C2156   1.344       .  D
C2156      H2164   1.084       .  S
C2157      H2165   1.087       .  S
C2157      C2158   1.346       .  D
C2158      H2166   1.086       .  S
C2167      C2175   1.472       .  S
C2167      C2168   1.405       .  A
C2167      C2172   1.401       .  A
C2168      C2169   1.393       .  A
C2168      H2177   1.083       .  S
C2169      C2170   1.405       .  A
C2169      H2178   1.083       .  S
C2170      C2173   1.472       .  S
C2170      C2171   1.401       .  A
C2171      C2172   1.394       .  A
C2171      H2179   1.084       .  S
C2172      H2180   1.084       .  S
C2173      H2181   1.087       .  S
C2173      C2174   1.344       .  D
C2174      H2182   1.087       .  S
C2175      H2183   1.088       .  S
C2175      C2176   1.345       .  D
C2176      H2184   1.086       .  S
C2185      C2193   1.487       .  S
C2185      C2186   1.403       .  A
C2185      C2190   1.409       .  A
C2186      C2187   1.394       .  A
C2186      H2195   1.084       .  S
C2187      C2188   1.401       .  A
C2187      H2196   1.083       .  S
C2188      C2191   1.483       .  S
C2188      C2189   1.407       .  A
C2189      C2190   1.401       .  A
C2189      H2197   1.082       .  S
C2190      H2198   1.080       .  S
C2191      H2199   1.087       .  S
C2191      C2192   1.346       .  D
C2192      H2200   1.085       .  S
C2193      H2201   1.088       .  S
C2193      C2194   1.347       .  D
C2194      H2202   1.084       .  S
C2203      C2211   1.503   1_565  S
C2203      C2204   1.410   1_565  A
C2203      C2208   1.408       .  A
C2204      C2205   1.411       .  A
C2204      H2213   1.083       .  S
C2205      C2206   1.408   1_545  A
C2205      H2214   1.082       .  S
C2206      C2209   1.498       .  S
C2206      C2207   1.405       .  A
C2207      C2208   1.401       .  A
C2207      H2215   1.084       .  S
C2208      H2216   1.082       .  S
C2209      H2217   1.087       .  S
C2209      C2210   1.355       .  D
C2210      H2218   1.086   1_565  S
C2211      H2219   1.086       .  S
C2211      C2212   1.352   1_545  D
C2212      H2220   1.086       .  S
C2221      C2229   1.464       .  S
C2221      C2222   1.400       .  A
C2221      C2226   1.404       .  A
C2222      C2223   1.395       .  A
C2222      H2231   1.083       .  S
C2223      C2224   1.405       .  A
C2223      H2232   1.083       .  S
C2224      C2227   1.463       .  S
C2224      C2225   1.397       .  A
C2225      C2226   1.386       .  A
C2225      H2233   1.084       .  S
C2226      H2234   1.083       .  S
C2227      H2235   1.088       .  S
C2227      C2228   1.338       .  D
C2228      H2236   1.087       .  S
C2229      H2237   1.087       .  S
C2229      C2230   1.342       .  D
C2230      H2238   1.087       .  S
C2239      C2247   1.471       .  S
C2239      C2240   1.401       .  A
C2239      C2244   1.402       .  A
C2240      C2241   1.397       .  A
C2240      H2249   1.083       .  S
C2241      C2242   1.407       .  A
C2241      H2250   1.082       .  S
C2242      C2245   1.477       .  S
C2242      C2243   1.402       .  A
C2243      C2244   1.392       .  A
C2243      H2251   1.084       .  S
C2244      H2252   1.083       .  S
C2245      H2253   1.088       .  S
C2245      C2246   1.345       .  D
C2246      H2254   1.085       .  S
C2247      H2255   1.087       .  S
C2247      C2248   1.341       .  D
C2248      H2256   1.088       .  S
C2257      C2265   1.474       .  S
C2257      C2258   1.400       .  A
C2257      C2262   1.407       .  A
C2258      C2259   1.394       .  A
C2258      H2267   1.084       .  S
C2259      C2260   1.406       .  A
C2259      H2268   1.083       .  S
C2260      C2263   1.474       .  S
C2260      C2261   1.400       .  A
C2261      C2262   1.395       .  A
C2261      H2269   1.083       .  S
C2262      H2270   1.082       .  S
C2263      H2271   1.087       .  S
C2263      C2264   1.341       .  D
C2264      H2272   1.086       .  S
C2265      H2273   1.087       .  S
C2265      C2266   1.341       .  D
C2266      H2274   1.086       .  S
C2275      C2283   1.507       .  S
C2275      C2276   1.408   1_565  A
C2275      C2280   1.410       .  A
C2276      C2277   1.407       .  A
C2276      H2285   1.083       .  S
C2277      C2278   1.410   1_545  A
C2277      H2286   1.082       .  S
C2278      C2281   1.510       .  S
C2278      C2279   1.409       .  A
C2279      C2280   1.411       .  A
C2279      H2287   1.083       .  S
C2280      H2288   1.082       .  S
C2281      H2289   1.087       .  S
C2281      C2282   1.355   1_565  D
C2282      H2290   1.086       .  S
C2283      H2291   1.087       .  S
C2283      C2284   1.355       .  D
C2284      H2292   1.085       .  S
C2293      C2301   1.482       .  S
C2293      C2294   1.401       .  A
C2293      C2298   1.408       .  A
C2294      C2295   1.395       .  A
C2294      H2303   1.084       .  S
C2295      C2296   1.407       .  A
C2295      H2304   1.082       .  S
C2296      C2299   1.483       .  S
C2296      C2297   1.402       .  A
C2297      C2298   1.399       .  A
C2297      H2305   1.083       .  S
C2298      H2306   1.082       .  S
C2299      H2307   1.087       .  S
C2299      C2300   1.344       .  D
C2300      H2308   1.086       .  S
C2301      H2309   1.087       .  S
C2301      C2302   1.342       .  D
C2302      H2310   1.086       .  S
C2311      C2319   1.502       .  S
C2311      C2312   1.406       .  A
C2311      C2316   1.409       .  A
C2312      C2313   1.403       .  A
C2312      H2321   1.083       .  S
C2313      C2314   1.410       .  A
C2313      H2322   1.082       .  S
C2314      C2317   1.511       .  S
C2314      C2315   1.411       .  A
C2315      C2316   1.414       .  A
C2315      H2323   1.083       .  S
C2316      H2324   1.083       .  S
C2317      H2325   1.086       .  S
C2317      C2318   1.354       .  D
C2318      H2326   1.086       .  S
C2319      H2327   1.087       .  S
C2319      C2320   1.358       .  D
C2320      H2328   1.085       .  S
C2329      C2337   1.486       .  S
C2329      C2330   1.402       .  A
C2329      C2334   1.410       .  A
C2330      C2331   1.393       .  A
C2330      H2339   1.084       .  S
C2331      C2332   1.406       .  A
C2331      H2340   1.082       .  S
C2332      C2335   1.485       .  S
C2332      C2333   1.403       .  A
C2333      C2334   1.401       .  A
C2333      H2341   1.083       .  S
C2334      H2342   1.080       .  S
C2335      H2343   1.087       .  S
C2335      C2336   1.344       .  D
C2336      H2344   1.086       .  S
C2337      H2345   1.087       .  S
C2337      C2338   1.346       .  D
C2338      H2346   1.083       .  S
C2347      C2355   1.500       .  S
C2347      C2348   1.406       .  A
C2347      C2352   1.408       .  A
C2348      C2349   1.403       .  A
C2348      H2357   1.083       .  S
C2349      C2350   1.409       .  A
C2349      H2358   1.081       .  S
C2350      C2353   1.503       .  S
C2350      C2351   1.409       .  A
C2351      C2352   1.409       .  A
C2351      H2359   1.083       .  S
C2352      H2360   1.082       .  S
C2353      H2361   1.087       .  S
C2353      C2354   1.353       .  D
C2354      H2362   1.085       .  S
C2355      H2363   1.087       .  S
C2355      C2356   1.355       .  D
C2356      H2364   1.085       .  S
C2365      C2373   1.512       .  S
C2365      C2366   1.409       .  A
C2365      C2370   1.410       .  A
C2366      C2367   1.409   1_655  A
C2366      H2375   1.083       .  S
C2367      C2368   1.411       .  A
C2367      H2376   1.081       .  S
C2368      C2371   1.513       .  S
C2368      C2369   1.410       .  A
C2369      C2370   1.411   1_455  A
C2369      H2377   1.083       .  S
C2370      H2378   1.082       .  S
C2371      H2379   1.086       .  S
C2371      C2372   1.356       .  D
C2372      H2380   1.085       .  S
C2373      H2381   1.087       .  S
C2373      C2374   1.358       .  D
C2374      H2382   1.085       .  S
C2383      C2391   1.473       .  S
C2383      C2384   1.399       .  A
C2383      C2388   1.408       .  A
C2384      C2385   1.393       .  A
C2384      H2393   1.083       .  S
C2385      C2386   1.404       .  A
C2385      H2394   1.083       .  S
C2386      C2389   1.469       .  S
C2386      C2387   1.399       .  A
C2387      C2388   1.398       .  A
C2387      H2395   1.083       .  S
C2388      H2396   1.083       .  S
C2389      H2397   1.086       .  S
C2389      C2390   1.344       .  D
C2390      H2398   1.088       .  S
C2391      H2399   1.087       .  S
C2391      C2392   1.341       .  D
C2392      H2400   1.088       .  S
C2401      C2409   1.461       .  S
C2401      C2402   1.401       .  A
C2401      C2406   1.399       .  A
C2402      C2403   1.394       .  A
C2402      H2411   1.084       .  S
C2403      C2404   1.402       .  A
C2403      H2412   1.083       .  S
C2404      C2407   1.464       .  S
C2404      C2405   1.402       .  A
C2405      C2406   1.392       .  A
C2405      H2413   1.084       .  S
C2406      H2414   1.083       .  S
C2407      H2415   1.087       .  S
C2407      C2408   1.345       .  D
C2408      H2416   1.087       .  S
C2409      H2417   1.087       .  S
C2409      C2410   1.344       .  D
C2410      H2418   1.087       .  S
C2419      C2427   1.486       .  S
C2419      C2420   1.403       .  A
C2419      C2424   1.407       .  A
C2420      C2421   1.400       .  A
C2420      H2429   1.083       .  S
C2421      C2422   1.409       .  A
C2421      H2430   1.081       .  S
C2422      C2425   1.487       .  S
C2422      C2423   1.402       .  A
C2423      C2424   1.396       .  A
C2423      H2431   1.084       .  S
C2424      H2432   1.082       .  S
C2425      H2433   1.087       .  S
C2425      C2426   1.344       .  D
C2426      H2434   1.084       .  S
C2427      H2435   1.087       .  S
C2427      C2428   1.345       .  D
C2428      H2436   1.086       .  S
C2437      C2445   1.480       .  S
C2437      C2438   1.403       .  A
C2437      C2442   1.405       .  A
C2438      C2439   1.398       .  A
C2438      H2447   1.083       .  S
C2439      C2440   1.405       .  A
C2439      H2448   1.082       .  S
C2440      C2443   1.481       .  S
C2440      C2441   1.404       .  A
C2441      C2442   1.399       .  A
C2441      H2449   1.083       .  S
C2442      H2450   1.082       .  S
C2443      H2451   1.087       .  S
C2443      C2444   1.345       .  D
C2444      H2452   1.086       .  S
C2445      H2453   1.088       .  S
C2445      C2446   1.345       .  D
C2446      H2454   1.086       .  S
C2455      C2463   1.503       .  S
C2455      C2456   1.408   1_655  A
C2455      C2460   1.407       .  A
C2456      C2457   1.406       .  A
C2456      H2465   1.083       .  S
C2457      C2458   1.408   1_455  A
C2457      H2466   1.082       .  S
C2458      C2461   1.507       .  S
C2458      C2459   1.411       .  A
C2459      C2460   1.412       .  A
C2459      H2467   1.083       .  S
C2460      H2468   1.082       .  S
C2461      H2469   1.087       .  S
C2461      C2462   1.358   1_655  D
C2462      H2470   1.085       .  S
C2463      H2471   1.087   1_655  S
C2463      C2464   1.358       .  D
C2464      H2472   1.086       .  S
C2473      C2481   1.473       .  S
C2473      C2474   1.403       .  A
C2473      C2478   1.402       .  A
C2474      C2475   1.394       .  A
C2474      H2483   1.082       .  S
C2475      C2476   1.409       .  A
C2475      H2484   1.081       .  S
C2476      C2479   1.476       .  S
C2476      C2477   1.400       .  A
C2477      C2478   1.392       .  A
C2477      H2485   1.083       .  S
C2478      H2486   1.084       .  S
C2479      H2487   1.088       .  S
C2479      C2480   1.338       .  D
C2480      H2488   1.085       .  S
C2481      H2489   1.088       .  S
C2481      C2482   1.345       .  D
C2482      H2490   1.085       .  S
C2491      C2499   1.469       .  S
C2491      C2492   1.398       .  A
C2491      C2496   1.408       .  A
C2492      C2493   1.394       .  A
C2492      H2501   1.083       .  S
C2493      C2494   1.402       .  A
C2493      H2502   1.084       .  S
C2494      C2497   1.464       .  S
C2494      C2495   1.399       .  A
C2495      C2496   1.392       .  A
C2495      H2503   1.083       .  S
C2496      H2504   1.083       .  S
C2497      H2505   1.087       .  S
C2497      C2498   1.344       .  D
C2498      H2506   1.087       .  S
C2499      H2507   1.087       .  S
C2499      C2500   1.334       .  D
C2500      H2508   1.088       .  S
C2509      C2517   1.478       .  S
C2509      C2510   1.400       .  A
C2509      C2514   1.407       .  A
C2510      C2511   1.395       .  A
C2510      H2519   1.084       .  S
C2511      C2512   1.408       .  A
C2511      H2520   1.081       .  S
C2512      C2515   1.482       .  S
C2512      C2513   1.401       .  A
C2513      C2514   1.396       .  A
C2513      H2521   1.083       .  S
C2514      H2522   1.082       .  S
C2515      H2523   1.087       .  S
C2515      C2516   1.342       .  D
C2516      H2524   1.085       .  S
C2517      H2525   1.087       .  S
C2517      C2518   1.341       .  D
C2518      H2526   1.086       .  S
C2527      C2535   1.485       .  S
C2527      C2528   1.403       .  A
C2527      C2532   1.408       .  A
C2528      C2529   1.402       .  A
C2528      H2537   1.083       .  S
C2529      C2530   1.409       .  A
C2529      H2538   1.082       .  S
C2530      C2533   1.482       .  S
C2530      C2531   1.400       .  A
C2531      C2532   1.392       .  A
C2531      H2539   1.084       .  S
C2532      H2540   1.082       .  S
C2533      H2541   1.087       .  S
C2533      C2534   1.343       .  D
C2534      H2542   1.085       .  S
C2535      H2543   1.087       .  S
C2535      C2536   1.342       .  D
C2536      H2544   1.086       .  S
C2545      C2553   1.513       .  S
C2545      C2546   1.414       .  A
C2545      C2550   1.406       .  A
C2546      C2547   1.417       .  A
C2546      H2555   1.081       .  S
C2547      C2548   1.414       .  A
C2547      H2556   1.081       .  S
C2548      C2551   1.514       .  S
C2548      C2549   1.407       .  A
C2549      C2550   1.403       .  A
C2549      H2557   1.083       .  S
C2550      H2558   1.083       .  S
C2551      H2559   1.087       .  S
C2551      C2552   1.357       .  D
C2552      H2560   1.084       .  S
C2553      H2561   1.087       .  S
C2553      C2554   1.358       .  D
C2554      H2562   1.084       .  S
C2563      C2571   1.484       .  S
C2563      C2564   1.401       .  A
C2563      C2568   1.408       .  A
C2564      C2565   1.394       .  A
C2564      H2573   1.084       .  S
C2565      C2566   1.407       .  A
C2565      H2574   1.082       .  S
C2566      C2569   1.486       .  S
C2566      C2567   1.404       .  A
C2567      C2568   1.403       .  A
C2567      H2575   1.083       .  S
C2568      H2576   1.082       .  S
C2569      H2577   1.087       .  S
C2569      C2570   1.345       .  D
C2570      H2578   1.086       .  S
C2571      H2579   1.088       .  S
C2571      C2572   1.345       .  D
C2572      H2580   1.086       .  S
C2581      C2589   1.484       .  S
C2581      C2582   1.402       .  A
C2581      C2586   1.407       .  A
C2582      C2583   1.395       .  A
C2582      H2591   1.084       .  S
C2583      C2584   1.408       .  A
C2583      H2592   1.081       .  S
C2584      C2587   1.488       .  S
C2584      C2585   1.405       .  A
C2585      C2586   1.400       .  A
C2585      H2593   1.083       .  S
C2586      H2594   1.081       .  S
C2587      H2595   1.087       .  S
C2587      C2588   1.346       .  D
C2588      H2596   1.084       .  S
C2589      H2597   1.088       .  S
C2589      C2590   1.346       .  D
C2590      H2598   1.085       .  S
C2599      C2607   1.495       .  S
C2599      C2600   1.407       .  A
C2599      C2604   1.406       .  A
C2600      C2601   1.407       .  A
C2600      H2609   1.083       .  S
C2601      C2602   1.406       .  A
C2601      H2610   1.083       .  S
C2602      C2605   1.495       .  S
C2602      C2603   1.407       .  A
C2603      C2604   1.406       .  A
C2603      H2611   1.083       .  S
C2604      H2612   1.083       .  S
C2605      H2613   1.087       .  S
C2605      C2606   1.353       .  D
C2606      H2614   1.086       .  S
C2607      H2615   1.087       .  S
C2607      C2608   1.353       .  D
C2608      H2616   1.086       .  S
C2617      C2625   1.513       .  S
C2617      C2618   1.410       .  A
C2617      C2622   1.410       .  A
C2618      C2619   1.410   1_556  A
C2618      H2627   1.083       .  S
C2619      C2620   1.410       .  A
C2619      H2628   1.082       .  S
C2620      C2623   1.513       .  S
C2620      C2621   1.410       .  A
C2621      C2622   1.412   1_554  A
C2621      H2629   1.083       .  S
C2622      H2630   1.082       .  S
C2623      H2631   1.086       .  S
C2623      C2624   1.357       .  D
C2624      H2632   1.085       .  S
C2625      H2633   1.086       .  S
C2625      C2626   1.359       .  D
C2626      H2634   1.085       .  S
C2635      C2643   1.474       .  S
C2635      C2636   1.399       .  A
C2635      C2640   1.408       .  A
C2636      C2637   1.397       .  A
C2636      H2645   1.083       .  S
C2637      C2638   1.408       .  A
C2637      H2646   1.082       .  S
C2638      C2641   1.469       .  S
C2638      C2639   1.396       .  A
C2639      C2640   1.389       .  A
C2639      H2647   1.084       .  S
C2640      H2648   1.083       .  S
C2641      H2649   1.088       .  S
C2641      C2642   1.337       .  D
C2642      H2650   1.086       .  S
C2643      H2651   1.087       .  S
C2643      C2644   1.337       .  D
C2644      H2652   1.088       .  S
C2653      C2661   1.463       .  S
C2653      C2654   1.401       .  A
C2653      C2658   1.400       .  A
C2654      C2655   1.392       .  A
C2654      H2663   1.083       .  S
C2655      C2656   1.404       .  A
C2655      H2664   1.083       .  S
C2656      C2659   1.472       .  S
C2656      C2657   1.402       .  A
C2657      C2658   1.396       .  A
C2657      H2665   1.084       .  S
C2658      H2666   1.083       .  S
C2659      H2667   1.087       .  S
C2659      C2660   1.345       .  D
C2660      H2668   1.087       .  S
C2661      H2669   1.086       .  S
C2661      C2662   1.342       .  D
C2662      H2670   1.089       .  S
C2671      C2679   1.486       .  S
C2671      C2672   1.403       .  A
C2671      C2676   1.408       .  A
C2672      C2673   1.399       .  A
C2672      H2681   1.083       .  S
C2673      C2674   1.409       .  A
C2673      H2682   1.081       .  S
C2674      C2677   1.486       .  S
C2674      C2675   1.402       .  A
C2675      C2676   1.396       .  A
C2675      H2683   1.084       .  S
C2676      H2684   1.081       .  S
C2677      H2685   1.087       .  S
C2677      C2678   1.345       .  D
C2678      H2686   1.084       .  S
C2679      H2687   1.087       .  S
C2679      C2680   1.346       .  D
C2680      H2688   1.085       .  S
C2689      C2697   1.498       .  S
C2689      C2690   1.406       .  A
C2689      C2694   1.408   1_554  A
C2690      C2691   1.403       .  A
C2690      H2699   1.084       .  S
C2691      C2692   1.407   1_554  A
C2691      H2700   1.082       .  S
C2692      C2695   1.502       .  S
C2692      C2693   1.409       .  A
C2693      C2694   1.411       .  A
C2693      H2701   1.083       .  S
C2694      H2702   1.082       .  S
C2695      H2703   1.086       .  S
C2695      C2696   1.353   1_556  D
C2696      H2704   1.086       .  S
C2697      H2705   1.087       .  S
C2697      C2698   1.356       .  D
C2698      H2706   1.086   1_554  S
C2707      C2715   1.476       .  S
C2707      C2708   1.403       .  A
C2707      C2712   1.405       .  A
C2708      C2709   1.394       .  A
C2708      H2717   1.083       .  S
C2709      C2710   1.405       .  A
C2709      H2718   1.082       .  S
C2710      C2713   1.475       .  S
C2710      C2711   1.402       .  A
C2711      C2712   1.393       .  A
C2711      H2719   1.084       .  S
C2712      H2720   1.082       .  S
C2713      H2721   1.087       .  S
C2713      C2714   1.345       .  D
C2714      H2722   1.084       .  S
C2715      H2723   1.087       .  S
C2715      C2716   1.346       .  D
C2716      H2724   1.084       .  S
C2725      C2733   1.466       .  S
C2725      C2726   1.401       .  A
C2725      C2730   1.402       .  A
C2726      C2727   1.394       .  A
C2726      H2735   1.084       .  S
C2727      C2728   1.403       .  A
C2727      H2736   1.083       .  S
C2728      C2731   1.466       .  S
C2728      C2729   1.401       .  A
C2729      C2730   1.391       .  A
C2729      H2737   1.084       .  S
C2730      H2738   1.083       .  S
C2731      H2739   1.088       .  S
C2731      C2732   1.345       .  D
C2732      H2740   1.087       .  S
C2733      H2741   1.087       .  S
C2733      C2734   1.345       .  D
C2734      H2742   1.087       .  S
C2743      C2751   1.481       .  S
C2743      C2744   1.400       .  A
C2743      C2748   1.407       .  A
C2744      C2745   1.391       .  A
C2744      H2753   1.084       .  S
C2745      C2746   1.403       .  A
C2745      H2754   1.084       .  S
C2746      C2749   1.486       .  S
C2746      C2747   1.410       .  A
C2747      C2748   1.404       .  A
C2747      H2755   1.080       .  S
C2748      H2756   1.082       .  S
C2749      H2757   1.087       .  S
C2749      C2750   1.348       .  D
C2750      H2758   1.084       .  S
C2751      H2759   1.087       .  S
C2751      C2752   1.346       .  D
C2752      H2760   1.085       .  S
C2761      C2769   1.512       .  S
C2761      C2762   1.410   1_556  A
C2761      C2766   1.408       .  A
C2762      C2763   1.411       .  A
C2762      H2771   1.083       .  S
C2763      C2764   1.412   1_554  A
C2763      H2772   1.081       .  S
C2764      C2767   1.516       .  S
C2764      C2765   1.411       .  A
C2765      C2766   1.411       .  A
C2765      H2773   1.083       .  S
C2766      H2774   1.082       .  S
C2767      H2775   1.087       .  S
C2767      C2768   1.359   1_556  D
C2768      H2776   1.084       .  S
C2769      H2777   1.086   1_556  S
C2769      C2770   1.360       .  D
C2770      H2778   1.085       .  S
C2779      C2787   1.483       .  S
C2779      C2780   1.403       .  A
C2779      C2784   1.407       .  A
C2780      C2781   1.398       .  A
C2780      H2789   1.083       .  S
C2781      C2782   1.406       .  A
C2781      H2790   1.083       .  S
C2782      C2785   1.481       .  S
C2782      C2783   1.403       .  A
C2783      C2784   1.398       .  A
C2783      H2791   1.083       .  S
C2784      H2792   1.082       .  S
C2785      H2793   1.087       .  S
C2785      C2786   1.345       .  D
C2786      H2794   1.086       .  S
C2787      H2795   1.087       .  S
C2787      C2788   1.344       .  D
C2788      H2796   1.086       .  S
C2797      C2805   1.481       .  S
C2797      C2798   1.402       .  A
C2797      C2802   1.407       .  A
C2798      C2799   1.399       .  A
C2798      H2807   1.083       .  S
C2799      C2800   1.407       .  A
C2799      H2808   1.082       .  S
C2800      C2803   1.480       .  S
C2800      C2801   1.401       .  A
C2801      C2802   1.394       .  A
C2801      H2809   1.084       .  S
C2802      H2810   1.082       .  S
C2803      H2811   1.088       .  S
C2803      C2804   1.344       .  D
C2804      H2812   1.086       .  S
C2805      H2813   1.087       .  S
C2805      C2806   1.344       .  D
C2806      H2814   1.086       .  S
C2815      C2823   1.486       .  S
C2815      C2816   1.410       .  A
C2815      C2820   1.401       .  A
C2816      C2817   1.404       .  A
C2816      H2825   1.080       .  S
C2817      C2818   1.409       .  A
C2817      H2826   1.081       .  S
C2818      C2821   1.484       .  S
C2818      C2819   1.401       .  A
C2819      C2820   1.390       .  A
C2819      H2827   1.084       .  S
C2820      H2828   1.084       .  S
C2821      H2829   1.087       .  S
C2821      C2822   1.346       .  D
C2822      H2830   1.084       .  S
C2823      H2831   1.087       .  S
C2823      C2824   1.346       .  D
C2824      H2832   1.083       .  S
C2833      C2841   1.481       .  S
C2833      C2834   1.403       .  A
C2833      C2838   1.405       .  A
C2834      C2835   1.401       .  A
C2834      H2843   1.083       .  S
C2835      C2836   1.408       .  A
C2835      H2844   1.082       .  S
C2836      C2839   1.478       .  S
C2836      C2837   1.401       .  A
C2837      C2838   1.392       .  A
C2837      H2845   1.084       .  S
C2838      H2846   1.083       .  S
C2839      H2847   1.088       .  S
C2839      C2840   1.342       .  D
C2840      H2848   1.086       .  S
C2841      H2849   1.087       .  S
C2841      C2842   1.343       .  D
C2842      H2850   1.087       .  S
C2851      C2859   1.495       .  S
C2851      C2852   1.402       .  A
C2851      C2856   1.412       .  A
C2852      C2853   1.393       .  A
C2852      H2861   1.084       .  S
C2853      C2854   1.403       .  A
C2853      H2862   1.084       .  S
C2854      C2857   1.495       .  S
C2854      C2855   1.411       .  A
C2855      C2856   1.414       .  A
C2855      H2863   1.082       .  S
C2856      H2864   1.082       .  S
C2857      H2865   1.087       .  S
C2857      C2858   1.353       .  D
C2858      H2866   1.085       .  S
C2859      H2867   1.087       .  S
C2859      C2860   1.352       .  D
C2860      H2868   1.085       .  S
C2869      C2877   1.512       .  S
C2869      C2870   1.409       .  A
C2869      C2874   1.412       .  A
C2870      C2871   1.408   1_556  A
C2870      H2879   1.083       .  S
C2871      C2872   1.411       .  A
C2871      H2880   1.080       .  S
C2872      C2875   1.510       .  S
C2872      C2873   1.408       .  A
C2873      C2874   1.407   1_554  A
C2873      H2881   1.083       .  S
C2874      H2882   1.079       .  S
C2875      H2883   1.086       .  S
C2875      C2876   1.356       .  D
C2876      H2884   1.083       .  S
C2877      H2885   1.087       .  S
C2877      C2878   1.356       .  D
C2878      H2886   1.083       .  S
C2887      C2895   1.470       .  S
C2887      C2888   1.404       .  A
C2887      C2892   1.402       .  A
C2888      C2889   1.393       .  A
C2888      H2897   1.082       .  S
C2889      C2890   1.406       .  A
C2889      H2898   1.083       .  S
C2890      C2893   1.469       .  S
C2890      C2891   1.399       .  A
C2891      C2892   1.392       .  A
C2891      H2899   1.083       .  S
C2892      H2900   1.084       .  S
C2893      H2901   1.087       .  S
C2893      C2894   1.337       .  D
C2894      H2902   1.086       .  S
C2895      H2903   1.088       .  S
C2895      C2896   1.346       .  D
C2896      H2904   1.085       .  S
C2905      C2913   1.471       .  S
C2905      C2906   1.402       .  A
C2905      C2910   1.405       .  A
C2906      C2907   1.392       .  A
C2906      H2915   1.084       .  S
C2907      C2908   1.400       .  A
C2907      H2916   1.084       .  S
C2908      C2911   1.463       .  S
C2908      C2909   1.400       .  A
C2909      C2910   1.395       .  A
C2909      H2917   1.083       .  S
C2910      H2918   1.082       .  S
C2911      H2919   1.087       .  S
C2911      C2912   1.342       .  D
C2912      H2920   1.088       .  S
C2913      H2921   1.088       .  S
C2913      C2914   1.345       .  D
C2914      H2922   1.085       .  S
C2923      C2931   1.485       .  S
C2923      C2924   1.408       .  A
C2923      C2928   1.402       .  A
C2924      C2925   1.397       .  A
C2924      H2933   1.081       .  S
C2925      C2926   1.407       .  A
C2925      H2934   1.081       .  S
C2926      C2929   1.485       .  S
C2926      C2927   1.403       .  A
C2927      C2928   1.396       .  A
C2927      H2935   1.083       .  S
C2928      H2936   1.084       .  S
C2929      H2937   1.087       .  S
C2929      C2930   1.346       .  D
C2930      H2938   1.083       .  S
C2931      H2939   1.087       .  S
C2931      C2932   1.344       .  D
C2932      H2940   1.084       .  S
C2941      C2949   1.497       .  S
C2941      C2942   1.406   1_556  A
C2941      C2946   1.407       .  A
C2942      C2943   1.403       .  A
C2942      H2951   1.083       .  S
C2943      C2944   1.409   1_554  A
C2943      H2952   1.082       .  S
C2944      C2947   1.504       .  S
C2944      C2945   1.409       .  A
C2945      C2946   1.410       .  A
C2945      H2953   1.083       .  S
C2946      H2954   1.082       .  S
C2947      H2955   1.086       .  S
C2947      C2948   1.353   1_556  D
C2948      H2956   1.086       .  S
C2949      H2957   1.087   1_556  S
C2949      C2950   1.355       .  D
C2950      H2958   1.086       .  S
C2959      C2967   1.474       .  S
C2959      C2960   1.401       .  A
C2959      C2964   1.405       .  A
C2960      C2961   1.395       .  A
C2960      H2969   1.084       .  S
C2961      C2962   1.405       .  A
C2961      H2970   1.083       .  S
C2962      C2965   1.474       .  S
C2962      C2963   1.401       .  A
C2963      C2964   1.395       .  A
C2963      H2971   1.084       .  S
C2964      H2972   1.083       .  S
C2965      H2973   1.087       .  S
C2965      C2966   1.344       .  D
C2966      H2974   1.087       .  S
C2967      H2975   1.087       .  S
C2967      C2968   1.344       .  D
C2968      H2976   1.087       .  S
C2977      C2985   1.478       .  S
C2977      C2978   1.401       .  A
C2977      C2982   1.407       .  A
C2978      C2979   1.396       .  A
C2978      H2987   1.084       .  S
C2979      C2980   1.407       .  A
C2979      H2988   1.083       .  S
C2980      C2983   1.471       .  S
C2980      C2981   1.398       .  A
C2981      C2982   1.392       .  A
C2981      H2989   1.084       .  S
C2982      H2990   1.082       .  S
C2983      H2991   1.088       .  S
C2983      C2984   1.336       .  D
C2984      H2992   1.086       .  S
C2985      H2993   1.087       .  S
C2985      C2986   1.343       .  D
C2986      H2994   1.086       .  S
C2995      C3003   1.487       .  S
C2995      C2996   1.402       .  A
C2995      C3000   1.409       .  A
C2996      C2997   1.398       .  A
C2996      H3005   1.083       .  S
C2997      C2998   1.409       .  A
C2997      H3006   1.081       .  S
C2998      C3001   1.485       .  S
C2998      C2999   1.401       .  A
C2999      C3000   1.396       .  A
C2999      H3007   1.084       .  S
C3000      H3008   1.081       .  S
C3001      H3009   1.088       .  S
C3001      C3002   1.343       .  D
C3002      H3010   1.085       .  S
C3003      H3011   1.087       .  S
C3003      C3004   1.343       .  D
C3004      H3012   1.084       .  S
C3013      C3021   1.499       .  S
C3013      C3014   1.405   1_554  A
C3013      C3018   1.410       .  A
C3014      C3015   1.404       .  A
C3014      H3023   1.083       .  S
C3015      C3016   1.411   1_556  A
C3015      H3024   1.080       .  S
C3016      C3019   1.501       .  S
C3016      C3017   1.405       .  A
C3017      C3018   1.402       .  A
C3017      H3025   1.083       .  S
C3018      H3026   1.081       .  S
C3019      H3027   1.086       .  S
C3019      C3020   1.350   1_554  D
C3020      H3028   1.083       .  S
C3021      H3029   1.086   1_554  S
C3021      C3022   1.349       .  D
C3022      H3030   1.084       .  S
C3031      C3039   1.514       .  S
C3031      C3032   1.408       .  A
C3031      C3036   1.412   1_554  A
C3032      C3033   1.406       .  A
C3032      H3041   1.083       .  S
C3033      C3034   1.411       .  A
C3033      H3042   1.081       .  S
C3034      C3037   1.515       .  S
C3034      C3035   1.410   1_554  A
C3035      C3036   1.413       .  A
C3035      H3043   1.083       .  S
C3036      H3044   1.080       .  S
C3037      H3045   1.086       .  S
C3037      C3038   1.355       .  D
C3038      H3046   1.084       .  S
C3039      H3047   1.087       .  S
C3039      C3040   1.358   1_554  D
C3040      H3048   1.083       .  S
C3049      C3057   1.489       .  S
C3049      C3050   1.403       .  A
C3049      C3054   1.410       .  A
C3050      C3051   1.393       .  A
C3050      H3059   1.084       .  S
C3051      C3052   1.402       .  A
C3051      H3060   1.084       .  S
C3052      C3055   1.488       .  S
C3052      C3053   1.409       .  A
C3053      C3054   1.404       .  A
C3053      H3061   1.081       .  S
C3054      H3062   1.080       .  S
C3055      H3063   1.087       .  S
C3055      C3056   1.349       .  D
C3056      H3064   1.084       .  S
C3057      H3065   1.087       .  S
C3057      C3058   1.349       .  D
C3058      H3066   1.084       .  S
C3067      C3075   1.477       .  S
C3067      C3068   1.401       .  A
C3067      C3072   1.406       .  A
C3068      C3069   1.398       .  A
C3068      H3077   1.084       .  S
C3069      C3070   1.407       .  A
C3069      H3078   1.082       .  S
C3070      C3073   1.474       .  S
C3070      C3071   1.400       .  A
C3071      C3072   1.391       .  A
C3071      H3079   1.084       .  S
C3072      H3080   1.082       .  S
C3073      H3081   1.087       .  S
C3073      C3074   1.344       .  D
C3074      H3082   1.086       .  S
C3075      H3083   1.087       .  S
C3075      C3076   1.342       .  D
C3076      H3084   1.086       .  S
C3085      C3093   1.499       .  S
C3085      C3086   1.413       .  A
C3085      C3090   1.403       .  A
C3086      C3087   1.417       .  A
C3086      H3095   1.081       .  S
C3087      C3088   1.412       .  A
C3087      H3096   1.082       .  S
C3088      C3091   1.498       .  S
C3088      C3089   1.403       .  A
C3089      C3090   1.392       .  A
C3089      H3097   1.084       .  S
C3090      H3098   1.084       .  S
C3091      H3099   1.087       .  S
C3091      C3092   1.355       .  D
C3092      H3100   1.085       .  S
C3093      H3101   1.087       .  S
C3093      C3094   1.355       .  D
C3094      H3102   1.085       .  S
C3103      C3111   1.476       .  S
C3103      C3104   1.401       .  A
C3103      C3108   1.407       .  A
C3104      C3105   1.395       .  A
C3104      H3113   1.084       .  S
C3105      C3106   1.401       .  A
C3105      H3114   1.084       .  S
C3106      C3109   1.474       .  S
C3106      C3107   1.405       .  A
C3107      C3108   1.399       .  A
C3107      H3115   1.083       .  S
C3108      H3116   1.082       .  S
C3109      H3117   1.087       .  S
C3109      C3110   1.341       .  D
C3110      H3118   1.087       .  S
C3111      H3119   1.087       .  S
C3111      C3112   1.341       .  D
C3112      H3120   1.087       .  S
C3121      C3129   1.477       .  S
C3121      C3122   1.401       .  A
C3121      C3126   1.407       .  A
C3122      C3123   1.391       .  A
C3122      H3131   1.084       .  S
C3123      C3124   1.405       .  A
C3123      H3132   1.082       .  S
C3124      C3127   1.477       .  S
C3124      C3125   1.402       .  A
C3125      C3126   1.399       .  A
C3125      H3133   1.083       .  S
C3126      H3134   1.081       .  S
C3127      H3135   1.087       .  S
C3127      C3128   1.343       .  D
C3128      H3136   1.086       .  S
C3129      H3137   1.087       .  S
C3129      C3130   1.346       .  D
C3130      H3138   1.085       .  S
C3139      C3147   1.493       .  S
C3139      C3140   1.404       .  A
C3139      C3144   1.408       .  A
C3140      C3141   1.400       .  A
C3140      H3149   1.083       .  S
C3141      C3142   1.408       .  A
C3141      H3150   1.082       .  S
C3142      C3145   1.497       .  S
C3142      C3143   1.407       .  A
C3143      C3144   1.408       .  A
C3143      H3151   1.083       .  S
C3144      H3152   1.082       .  S
C3145      H3153   1.087       .  S
C3145      C3146   1.350       .  D
C3146      H3154   1.086       .  S
C3147      H3155   1.087       .  S
C3147      C3148   1.351       .  D
C3148      H3156   1.086       .  S
C3157      C3165   1.502       .  S
C3157      C3158   1.406       .  A
C3157      C3162   1.409       .  A
C3158      C3159   1.405   1_545  A
C3158      H3167   1.083       .  S
C3159      C3160   1.410       .  A
C3159      H3168   1.082       .  S
C3160      C3163   1.507       .  S
C3160      C3161   1.409       .  A
C3161      C3162   1.410   1_565  A
C3161      H3169   1.083       .  S
C3162      H3170   1.082       .  S
C3163      H3171   1.086       .  S
C3163      C3164   1.354       .  D
C3164      H3172   1.085       .  S
C3165      H3173   1.087       .  S
C3165      C3166   1.353       .  D
C3166      H3174   1.086       .  S
C3175      C3183   1.473       .  S
C3175      C3176   1.400       .  A
C3175      C3180   1.406       .  A
C3176      C3177   1.393       .  A
C3176      H3185   1.083       .  S
C3177      C3178   1.403       .  A
C3177      H3186   1.084       .  S
C3178      C3181   1.475       .  S
C3178      C3179   1.404       .  A
C3179      C3180   1.393       .  A
C3179      H3187   1.081       .  S
C3180      H3188   1.082       .  S
C3181      H3189   1.088       .  S
C3181      C3182   1.346       .  D
C3182      H3190   1.085       .  S
C3183      H3191   1.088       .  S
C3183      C3184   1.340       .  D
C3184      H3192   1.086       .  S
C3193      C3201   1.475       .  S
C3193      C3194   1.402       .  A
C3193      C3198   1.405       .  A
C3194      C3195   1.394       .  A
C3194      H3203   1.084       .  S
C3195      C3196   1.405       .  A
C3195      H3204   1.083       .  S
C3196      C3199   1.473       .  S
C3196      C3197   1.401       .  A
C3197      C3198   1.393       .  A
C3197      H3205   1.083       .  S
C3198      H3206   1.082       .  S
C3199      H3207   1.087       .  S
C3199      C3200   1.344       .  D
C3200      H3208   1.086       .  S
C3201      H3209   1.087       .  S
C3201      C3202   1.345       .  D
C3202      H3210   1.085       .  S
C3211      C3219   1.487       .  S
C3211      C3212   1.401       .  A
C3211      C3216   1.409       .  A
C3212      C3213   1.394       .  A
C3212      H3221   1.084       .  S
C3213      C3214   1.408       .  A
C3213      H3222   1.082       .  S
C3214      C3217   1.494       .  S
C3214      C3215   1.405       .  A
C3215      C3216   1.406       .  A
C3215      H3223   1.083       .  S
C3216      H3224   1.082       .  S
C3217      H3225   1.086       .  S
C3217      C3218   1.345       .  D
C3218      H3226   1.087       .  S
C3219      H3227   1.087       .  S
C3219      C3220   1.346       .  D
C3220      H3228   1.086       .  S
C3229      C3237   1.491       .  S
C3229      C3230   1.402       .  A
C3229      C3234   1.412       .  A
C3230      C3231   1.397       .  A
C3230      H3239   1.083       .  S
C3231      C3232   1.408       .  A
C3231      H3240   1.083       .  S
C3232      C3235   1.488       .  S
C3232      C3233   1.402       .  A
C3233      C3234   1.403       .  A
C3233      H3241   1.083       .  S
C3234      H3242   1.082       .  S
C3235      H3243   1.086       .  S
C3235      C3236   1.343       .  D
C3236      H3244   1.088       .  S
C3237      H3245   1.087       .  S
C3237      C3238   1.345       .  D
C3238      H3246   1.085       .  S
C3247      C3255   1.515       .  S
C3247      C3248   1.404       .  A
C3247      C3252   1.417       .  A
C3248      C3249   1.396       .  A
C3248      H3257   1.084       .  S
C3249      C3250   1.406       .  A
C3249      H3258   1.083       .  S
C3250      C3253   1.514       .  S
C3250      C3251   1.415       .  A
C3251      C3252   1.426       .  A
C3251      H3259   1.082       .  S
C3252      H3260   1.082       .  S
C3253      H3261   1.086       .  S
C3253      C3254   1.366       .  D
C3254      H3262   1.084       .  S
C3255      H3263   1.087       .  S
C3255      C3256   1.360       .  D
C3256      H3264   1.085       .  S
C3265      C3273   1.474       .  S
C3265      C3266   1.401       .  A
C3265      C3270   1.407       .  A
C3266      C3267   1.393       .  A
C3266      H3275   1.084       .  S
C3267      C3268   1.401       .  A
C3267      H3276   1.083       .  S
C3268      C3271   1.474       .  S
C3268      C3269   1.405       .  A
C3269      C3270   1.394       .  A
C3269      H3277   1.082       .  S
C3270      H3278   1.081       .  S
C3271      H3279   1.087       .  S
C3271      C3272   1.344       .  D
C3272      H3280   1.085       .  S
C3273      H3281   1.088       .  S
C3273      C3274   1.340       .  D
C3274      H3282   1.085       .  S
C3283      C3291   1.472       .  S
C3283      C3284   1.400       .  A
C3283      C3288   1.406       .  A
C3284      C3285   1.392       .  A
C3284      H3293   1.084       .  S
C3285      C3286   1.405       .  A
C3285      H3294   1.083       .  S
C3286      C3289   1.472       .  S
C3286      C3287   1.400       .  A
C3287      C3288   1.392       .  A
C3287      H3295   1.083       .  S
C3288      H3296   1.082       .  S
C3289      H3297   1.087       .  S
C3289      C3290   1.343       .  D
C3290      H3298   1.085       .  S
C3291      H3299   1.087       .  S
C3291      C3292   1.343       .  D
C3292      H3300   1.085       .  S
C3301      C3309   1.478       .  S
C3301      C3302   1.402       .  A
C3301      C3306   1.405       .  A
C3302      C3303   1.398       .  A
C3302      H3311   1.083       .  S
C3303      C3304   1.406       .  A
C3303      H3312   1.083       .  S
C3304      C3307   1.478       .  S
C3304      C3305   1.401       .  A
C3305      C3306   1.395       .  A
C3305      H3313   1.083       .  S
C3306      H3314   1.083       .  S
C3307      H3315   1.087       .  S
C3307      C3308   1.342       .  D
C3308      H3316   1.086       .  S
C3309      H3317   1.087       .  S
C3309      C3310   1.343       .  D
C3310      H3318   1.086       .  S
C3319      C3327   1.478       .  S
C3319      C3320   1.400       .  A
C3319      C3324   1.408       .  A
C3320      C3321   1.387       .  A
C3320      H3329   1.084       .  S
C3321      C3322   1.401       .  A
C3321      H3330   1.084       .  S
C3322      C3325   1.481       .  S
C3322      C3323   1.409       .  A
C3323      C3324   1.404       .  A
C3323      H3331   1.081       .  S
C3324      H3332   1.082       .  S
C3325      H3333   1.088       .  S
C3325      C3326   1.347       .  D
C3326      H3334   1.084       .  S
C3327      H3335   1.087       .  S
C3327      C3328   1.346       .  D
C3328      H3336   1.085       .  S
C3337      C3345   1.494       .  S
C3337      C3338   1.403       .  A
C3337      C3342   1.411   1_545  A
C3338      C3339   1.395       .  A
C3338      H3347   1.084       .  S
C3339      C3340   1.403       .  A
C3339      H3348   1.084       .  S
C3340      C3343   1.495       .  S
C3340      C3341   1.411   1_545  A
C3341      C3342   1.414       .  A
C3341      H3349   1.082       .  S
C3342      H3350   1.082       .  S
C3343      H3351   1.087       .  S
C3343      C3344   1.352   1_545  D
C3344      H3352   1.086       .  S
C3345      H3353   1.087       .  S
C3345      C3346   1.353       .  D
C3346      H3354   1.085       .  S
C3355      C3363   1.515       .  S
C3355      C3356   1.410       .  A
C3355      C3360   1.412   1_565  A
C3356      C3357   1.410       .  A
C3356      H3365   1.083       .  S
C3357      C3358   1.411       .  A
C3357      H3366   1.080       .  S
C3358      C3361   1.510       .  S
C3358      C3359   1.407   1_565  A
C3359      C3360   1.405       .  A
C3359      H3367   1.084       .  S
C3360      H3368   1.079       .  S
C3361      H3369   1.087   1_565  S
C3361      C3362   1.356       .  D
C3362      H3370   1.084       .  S
C3363      H3371   1.086       .  S
C3363      C3364   1.356   1_565  D
C3364      H3372   1.082       .  S
C3373      C3381   1.487       .  S
C3373      C3374   1.402       .  A
C3373      C3378   1.406       .  A
C3374      C3375   1.404       .  A
C3374      H3383   1.083       .  S
C3375      C3376   1.411       .  A
C3375      H3384   1.081       .  S
C3376      C3379   1.489       .  S
C3376      C3377   1.403       .  A
C3377      C3378   1.394       .  A
C3377      H3385   1.084       .  S
C3378      H3386   1.082       .  S
C3379      H3387   1.087       .  S
C3379      C3380   1.348       .  D
C3380      H3388   1.085       .  S
C3381      H3389   1.086       .  S
C3381      C3382   1.342       .  D
C3382      H3390   1.088       .  S
C3391      C3399   1.487       .  S
C3391      C3392   1.402       .  A
C3391      C3396   1.410       .  A
C3392      C3393   1.393       .  A
C3392      H3401   1.084       .  S
C3393      C3394   1.406       .  A
C3393      H3402   1.083       .  S
C3394      C3397   1.489       .  S
C3394      C3395   1.404       .  A
C3395      C3396   1.405       .  A
C3395      H3403   1.083       .  S
C3396      H3404   1.081       .  S
C3397      H3405   1.086       .  S
C3397      C3398   1.345       .  D
C3398      H3406   1.087       .  S
C3399      H3407   1.088       .  S
C3399      C3400   1.346       .  D
C3400      H3408   1.085       .  S
C3409      C3417   1.510       .  S
C3409      C3410   1.411       .  A
C3409      C3414   1.410       .  A
C3410      C3411   1.413       .  A
C3410      H3419   1.083       .  S
C3411      C3412   1.409       .  A
C3411      H3420   1.082       .  S
C3412      C3415   1.503       .  S
C3412      C3413   1.406       .  A
C3413      C3414   1.404       .  A
C3413      H3421   1.084       .  S
C3414      H3422   1.081       .  S
C3415      H3423   1.087       .  S
C3415      C3416   1.357       .  D
C3416      H3424   1.086       .  S
C3417      H3425   1.087       .  S
C3417      C3418   1.355       .  D
C3418      H3426   1.086       .  S
C3427      C3435   1.484       .  S
C3427      C3428   1.404       .  A
C3427      C3432   1.406       .  A
C3428      C3429   1.400       .  A
C3428      H3437   1.084       .  S
C3429      C3430   1.406       .  A
C3429      H3438   1.082       .  S
C3430      C3433   1.485       .  S
C3430      C3431   1.404       .  A
C3431      C3432   1.400       .  A
C3431      H3439   1.083       .  S
C3432      H3440   1.082       .  S
C3433      H3441   1.087       .  S
C3433      C3434   1.347       .  D
C3434      H3442   1.086       .  S
C3435      H3443   1.087       .  S
C3435      C3436   1.346       .  D
C3436      H3444   1.086       .  S
C3445      C3453   1.492       .  S
C3445      C3446   1.402       .  A
C3445      C3450   1.411       .  A
C3446      C3447   1.398       .  A
C3446      H3455   1.084       .  S
C3447      C3448   1.409       .  A
C3447      H3456   1.081       .  S
C3448      C3451   1.489       .  S
C3448      C3449   1.402       .  A
C3449      C3450   1.400       .  A
C3449      H3457   1.083       .  S
C3450      H3458   1.080       .  S
C3451      H3459   1.087       .  S
C3451      C3452   1.344       .  D
C3452      H3460   1.084       .  S
C3453      H3461   1.087       .  S
C3453      C3454   1.344       .  D
C3454      H3462   1.084       .  S
C3463      C3471   1.505       .  S
C3463      C3464   1.408       .  A
C3463      C3468   1.409       .  A
C3464      C3465   1.408       .  A
C3464      H3473   1.083       .  S
C3465      C3466   1.411       .  A
C3465      H3474   1.080       .  S
C3466      C3469   1.505       .  S
C3466      C3467   1.406       .  A
C3467      C3468   1.402       .  A
C3467      H3475   1.084       .  S
C3468      H3476   1.081       .  S
C3469      H3477   1.087       .  S
C3469      C3470   1.354       .  D
C3470      H3478   1.084       .  S
C3471      H3479   1.086       .  S
C3471      C3472   1.353       .  D
C3472      H3480   1.084       .  S
C3481      C3489   1.508       .  S
C3481      C3482   1.409       .  A
C3481      C3486   1.409       .  A
C3482      C3483   1.411   1_655  A
C3482      H3491   1.083       .  S
C3483      C3484   1.409       .  A
C3483      H3492   1.082       .  S
C3484      C3487   1.505       .  S
C3484      C3485   1.407       .  A
C3485      C3486   1.405   1_455  A
C3485      H3493   1.083       .  S
C3486      H3494   1.082       .  S
C3487      H3495   1.087       .  S
C3487      C3488   1.356       .  D
C3488      H3496   1.085       .  S
C3489      H3497   1.086       .  S
C3489      C3490   1.354       .  D
C3490      H3498   1.086       .  S
C3499      C3507   1.478       .  S
C3499      C3500   1.403       .  A
C3499      C3504   1.408       .  A
C3500      C3501   1.398       .  A
C3500      H3509   1.083       .  S
C3501      C3502   1.402       .  A
C3501      H3510   1.083       .  S
C3502      C3505   1.470       .  S
C3502      C3503   1.400       .  A
C3503      C3504   1.391       .  A
C3503      H3511   1.084       .  S
C3504      H3512   1.081       .  S
C3505      H3513   1.087       .  S
C3505      C3506   1.343       .  D
C3506      H3514   1.087       .  S
C3507      H3515   1.087       .  S
C3507      C3508   1.341       .  D
C3508      H3516   1.086       .  S
C3517      C3525   1.477       .  S
C3517      C3518   1.405       .  A
C3517      C3522   1.406       .  A
C3518      C3519   1.393       .  A
C3518      H3527   1.083       .  S
C3519      C3520   1.399       .  A
C3519      H3528   1.083       .  S
C3520      C3523   1.474       .  S
C3520      C3521   1.406       .  A
C3521      C3522   1.393       .  A
C3521      H3529   1.083       .  S
C3522      H3530   1.080       .  S
C3523      H3531   1.087       .  S
C3523      C3524   1.341       .  D
C3524      H3532   1.087       .  S
C3525      H3533   1.088       .  S
C3525      C3526   1.345       .  D
C3526      H3534   1.082       .  S
C3535      C3543   1.487       .  S
C3535      C3536   1.403       .  A
C3535      C3540   1.408       .  A
C3536      C3537   1.396       .  A
C3536      H3545   1.084       .  S
C3537      C3538   1.407       .  A
C3537      H3546   1.082       .  S
C3538      C3541   1.487       .  S
C3538      C3539   1.403       .  A
C3539      C3540   1.401       .  A
C3539      H3547   1.084       .  S
C3540      H3548   1.081       .  S
C3541      H3549   1.087       .  S
C3541      C3542   1.345       .  D
C3542      H3550   1.086       .  S
C3543      H3551   1.088       .  S
C3543      C3544   1.346       .  D
C3544      H3552   1.085       .  S
C3553      C3561   1.479       .  S
C3553      C3554   1.402       .  A
C3553      C3558   1.406       .  A
C3554      C3555   1.393       .  A
C3554      H3563   1.084       .  S
C3555      C3556   1.406       .  A
C3555      H3564   1.080       .  S
C3556      C3559   1.480       .  S
C3556      C3557   1.403       .  A
C3557      C3558   1.395       .  A
C3557      H3565   1.084       .  S
C3558      H3566   1.080       .  S
C3559      H3567   1.087       .  S
C3559      C3560   1.345       .  D
C3560      H3568   1.084       .  S
C3561      H3569   1.088       .  S
C3561      C3562   1.346       .  D
C3562      H3570   1.084       .  S
C3571      C3579   1.487       .  S
C3571      C3572   1.401       .  A
C3571      C3576   1.408   1_455  A
C3572      C3573   1.397       .  A
C3572      H3581   1.084       .  S
C3573      C3574   1.408   1_455  A
C3573      H3582   1.082       .  S
C3574      C3577   1.495       .  S
C3574      C3575   1.407       .  A
C3575      C3576   1.407       .  A
C3575      H3583   1.083       .  S
C3576      H3584   1.083       .  S
C3577      H3585   1.086       .  S
C3577      C3578   1.348   1_655  D
C3578      H3586   1.086       .  S
C3579      H3587   1.087       .  S
C3579      C3580   1.348   1_455  D
C3580      H3588   1.086       .  S
C3589      C3597   1.470       .  S
C3589      C3590   1.401       .  A
C3589      C3594   1.404       .  A
C3590      C3591   1.395       .  A
C3590      H3599   1.083       .  S
C3591      C3592   1.402       .  A
C3591      H3600   1.083       .  S
C3592      C3595   1.464       .  S
C3592      C3593   1.400       .  A
C3593      C3594   1.394       .  A
C3593      H3601   1.083       .  S
C3594      H3602   1.083       .  S
C3595      H3603   1.087       .  S
C3595      C3596   1.342       .  D
C3596      H3604   1.089       .  S
C3597      H3605   1.087       .  S
C3597      C3598   1.345       .  D
C3598      H3606   1.087       .  S
C3607      C3615   1.474       .  S
C3607      C3608   1.402       .  A
C3607      C3612   1.405       .  A
C3608      C3609   1.393       .  A
C3608      H3617   1.084       .  S
C3609      C3610   1.403       .  A
C3609      H3618   1.083       .  S
C3610      C3613   1.472       .  S
C3610      C3611   1.401       .  A
C3611      C3612   1.396       .  A
C3611      H3619   1.084       .  S
C3612      H3620   1.082       .  S
C3613      H3621   1.087       .  S
C3613      C3614   1.344       .  D
C3614      H3622   1.087       .  S
C3615      H3623   1.087       .  S
C3615      C3616   1.346       .  D
C3616      H3624   1.085       .  S
C3625      C3633   1.489       .  S
C3625      C3626   1.402       .  A
C3625      C3630   1.410       .  A
C3626      C3627   1.397       .  A
C3626      H3635   1.083       .  S
C3627      C3628   1.409       .  A
C3627      H3636   1.080       .  S
C3628      C3631   1.488       .  S
C3628      C3629   1.402       .  A
C3629      C3630   1.397       .  A
C3629      H3637   1.083       .  S
C3630      H3638   1.080       .  S
C3631      H3639   1.086       .  S
C3631      C3632   1.345       .  D
C3632      H3640   1.082       .  S
C3633      H3641   1.087       .  S
C3633      C3634   1.344       .  D
C3634      H3642   1.082       .  S
C3643      C3651   1.488       .  S
C3643      C3644   1.403       .  A
C3643      C3648   1.410       .  A
C3644      C3645   1.392       .  A
C3644      H3653   1.084       .  S
C3645      C3646   1.404       .  A
C3645      H3654   1.083       .  S
C3646      C3649   1.485       .  S
C3646      C3647   1.403       .  A
C3647      C3648   1.403       .  A
C3647      H3655   1.083       .  S
C3648      H3656   1.080       .  S
C3649      H3657   1.086       .  S
C3649      C3650   1.344       .  D
C3650      H3658   1.086       .  S
C3651      H3659   1.087       .  S
C3651      C3652   1.348       .  D
C3652      H3660   1.083       .  S
C3661      C3669   1.503       .  S
C3661      C3662   1.405   1_455  A
C3661      C3666   1.410       .  A
C3662      C3663   1.404       .  A
C3662      H3671   1.083       .  S
C3663      C3664   1.412   1_655  A
C3663      H3672   1.079       .  S
C3664      C3667   1.509       .  S
C3664      C3665   1.408       .  A
C3665      C3666   1.407       .  A
C3665      H3673   1.083       .  S
C3666      H3674   1.081       .  S
C3667      H3675   1.087       .  S
C3667      C3668   1.353   1_455  D
C3668      H3676   1.082       .  S
C3669      H3677   1.087   1_455  S
C3669      C3670   1.352       .  D
C3670      H3678   1.085       .  S
C3679      C3687   1.510       .  S
C3679      C3680   1.406       .  A
C3679      C3684   1.414       .  A
C3680      C3681   1.402       .  A
C3680      H3689   1.083       .  S
C3681      C3682   1.406       .  A
C3681      H3690   1.083       .  S
C3682      C3685   1.508       .  S
C3682      C3683   1.412       .  A
C3683      C3684   1.412       .  A
C3683      H3691   1.081       .  S
C3684      H3692   1.080       .  S
C3685      H3693   1.087       .  S
C3685      C3686   1.355       .  D
C3686      H3694   1.083       .  S
C3687      H3695   1.087       .  S
C3687      C3688   1.354       .  D
C3688      H3696   1.083       .  S
