geometry optimzed in LAMMPS
_audit_creation_date              2020-11-30 
_audit_creation_method            'lammps2cif' 
_symmetry_space_group_name_H-M    'P1' 
_symmetry_Int_Tables_number       1 
_symmetry_cell_setting            triclinic 
loop_ 
_symmetry_equiv_pos_as_xyz 
  x,y,z 
_cell_length_a                    52.335307534132355 
_cell_length_b                    52.38028026988172 
_cell_length_c                    30.933737352429823 
_cell_angle_alpha                 89.52605096253126 
_cell_angle_beta                  88.97491296789917 
_cell_angle_gamma                 121.13294610677431 
loop_ 
_atom_site_label 
_atom_site_type_symbol 
_atom_site_fract_x 
_atom_site_fract_y 
_atom_site_fract_z 
_atom_site_charge 
C1          C  0.48804269  0.01848389  0.49885506     0.03620
C2          C  0.01876732  0.02961152  0.50186187    -0.12530
C3          C  0.02955373  0.01029949  0.00826990     0.01120
C4          C  0.00889613  0.47964274  0.01372055    -0.11050
C5          C  0.47831848  0.46763646  0.00656476     0.03610
C6          C  0.46813270  0.48738914  0.49878922    -0.10470
H7          H  0.03427480  0.05343187  0.49933487     0.09210
H8          H  0.01688324  0.46488904  0.02195299     0.06740
H9          H  0.44481072  0.47874757  0.49247532     0.06580
C10         C  0.40237983  0.33903350  0.99491208     0.03620
C11         C  0.39229515  0.32351245  0.45617922    -0.12530
C12         C  0.37601533  0.29224422  0.45671450     0.01120
C13         C  0.36910651  0.27657813  0.99630466    -0.11050
C14         C  0.37767167  0.29180105  0.03553199     0.03610
C15         C  0.39441346  0.32313196  0.03445479    -0.10470
H16         H  0.39787467  0.33571004  0.42560154     0.09210
H17         H  0.35758462  0.25243514  0.99640492     0.06740
H18         H  0.40165374  0.33524578  0.06434895     0.06580
C19         C  0.44817525  0.10334027  0.49632622     0.03620
C20         C  0.44095539  0.11250143  0.45787030    -0.12530
C21         C  0.42677341  0.12907891  0.45951161     0.01120
C22         C  0.41961513  0.13619789  0.49975089    -0.11050
C23         C  0.42599872  0.12657839  0.03813620     0.03610
C24         C  0.44112786  0.11107037  0.03639252    -0.10470
H25         H  0.44476269  0.10531119  0.42691976     0.09210
H26         H  0.40724516  0.14758330  0.50120662     0.06740
H27         H  0.44552570  0.10321461  0.06626912     0.06580
O28         O  0.27619549  0.13925123  0.28216742    -0.84860
O29         O  0.32293417  0.19471263  0.30473908    -0.81900
C30         C  0.34939928  0.21610394  0.30911584     0.98610
O31         O  0.36952154  0.22014726  0.28175014    -0.81940
O32         O  0.38010457  0.17560175  0.30404747    -0.84580
C33         C  0.37364573  0.14918305  0.31120014     1.03130
O34         O  0.35575227  0.12816280  0.28738839    -0.77340
O35         O  0.29960070  0.11774177  0.30610060    -0.77530
C36         C  0.27797636  0.12185638  0.30884140     1.03080
O37         O  0.29351528  0.15506559  0.19304644    -0.84850
O38         O  0.33478951  0.21246291  0.21484961    -0.81920
C39         C  0.35572884  0.21835061  0.18806253     0.98620
O40         O  0.37086934  0.20608672  0.19193306    -0.81940
O41         O  0.38645842  0.16537338  0.21479407    -0.84550
C42         C  0.37156334  0.14335863  0.19072538     1.03100
O43         O  0.34373123  0.12688611  0.19668416    -0.77370
O44         O  0.28623194  0.11192312  0.21519326    -0.77520
C45         C  0.28167259  0.12733217  0.18811072     1.03060
Cr46       Cr  0.30885850  0.17447121  0.24885885     1.93740
Cr47       Cr  0.37374810  0.18973662  0.24821810     1.93210
Cr48       Cr  0.32233921  0.12413578  0.25127871     1.39100
O49         O  0.33504547  0.16269404  0.24963514    -1.22610
C50         C  0.15737759  0.05805192  0.00707072     0.03620
C51         C  0.17437868  0.06319049  0.04419328    -0.12530
C52         C  0.20553889  0.07709245  0.04049334     0.01120
C53         C  0.21925504  0.08294178  0.99928299    -0.11050
C54         C  0.20247243  0.07716669  0.46204047     0.03610
C55         C  0.17153333  0.06476684  0.46598511    -0.10470
H56         H  0.16359582  0.05797897  0.07595008     0.09210
H57         H  0.24333246  0.09362159  0.99622177     0.06740
H58         H  0.15861267  0.06098763  0.43719280     0.06580
C59         C  0.23120764  0.07092304  0.40318030    -0.11780
C60         C  0.21818379  0.08656665  0.41951026     0.05230
C61         C  0.22169979  0.11156682  0.39614473    -0.07060
C62         C  0.24022497  0.12157620  0.35884874    -0.07810
C63         C  0.25490622  0.10708926  0.34391451    -0.02360
C64         C  0.24864376  0.08017793  0.36475531     0.04460
N65         N  0.25845291  0.06135562  0.34658021     0.66960
H66         H  0.22728526  0.05104108  0.42030479     0.15860
H67         H  0.24435921  0.14180235  0.34258301     0.15570
N68         N  0.20763259  0.12766609  0.41012964     0.74670
O69         O  0.26171617  0.04374439  0.37074659    -0.38780
O70         O  0.25889205  0.05851632  0.30611943    -0.38660
O71         O  0.20447094  0.13110200  0.44978644    -0.39430
O72         O  0.20052956  0.14071496  0.38261148    -0.39490
C73         C  0.22167770  0.07077434  0.11357541    -0.11780
C74         C  0.22428815  0.08948027  0.07895548     0.05230
C75         C  0.24561769  0.12023037  0.08049890    -0.07060
C76         C  0.26429276  0.13163334  0.11579632    -0.07810
C77         C  0.26204918  0.11313276  0.15064337    -0.02360
C78         C  0.24055693  0.08215117  0.14910827     0.04460
N79         N  0.23741216  0.06191451  0.18308718     0.66960
H80         H  0.20541676  0.04708536  0.11246976     0.15860
H81         H  0.28043252  0.15537574  0.11610243     0.15570
N82         N  0.24795964  0.14034106  0.04687477     0.74670
O83         O  0.21236330  0.04591661  0.20204183    -0.38780
O84         O  0.25733317  0.05540823  0.18748518    -0.38720
O85         O  0.22563906  0.14232114  0.03767839    -0.39430
O86         O  0.27239802  0.15623139  0.02638645    -0.39490
C87         C  0.36853401  0.11722756  0.12266272    -0.11780
C88         C  0.38653686  0.13705991  0.15455573     0.05230
C89         C  0.41806261  0.15143065  0.14952845    -0.07060
C90         C  0.43051274  0.14729785  0.11152632    -0.07810
C91         C  0.41231286  0.12839240  0.07924104    -0.02360
C92         C  0.38095650  0.11229549  0.08551163     0.04460
N93         N  0.36147408  0.09087576  0.05466141     0.66960
H94         H  0.34445885  0.10549989  0.12646177     0.15860
H95         H  0.45455676  0.15893010  0.10705236     0.15570
N96         N  0.43773977  0.16974786  0.18264090     0.74670
O97         O  0.33539036  0.08597340  0.05011170    -0.38780
O98         O  0.36893613  0.07444565  0.03543291    -0.38720
O99         O  0.43415394  0.15949561  0.22080282    -0.39430
O100        O  0.46150172  0.19382713  0.17246218    -0.39490
C101        C  0.41847847  0.15610157  0.34851581    -0.11780
C102        C  0.38732368  0.14279212  0.34773937     0.05230
C103        C  0.36971961  0.12500574  0.38321026    -0.07060
C104        C  0.38344125  0.12142546  0.41906852    -0.07810
C105        C  0.41452828  0.13459020  0.42017001    -0.02360
C106        C  0.43245158  0.15198118  0.38421178     0.04460
N107        N  0.46449796  0.16611241  0.38364746     0.66960
H108        H  0.43195931  0.17003023  0.32130005     0.15860
H109        H  0.36957365  0.10764412  0.44616753     0.15570
N110        N  0.33786422  0.11038732  0.38335279     0.74670
O111        O  0.47883186  0.17177344  0.34810226    -0.38780
O112        O  0.47885836  0.17530141  0.41807104    -0.38720
O113        O  0.32356757  0.09025541  0.35638069    -0.39430
O114        O  0.32405454  0.11273974  0.41548640    -0.39490
C115        C  0.33862091  0.23129985  0.12273803    -0.11780
C116        C  0.36178930  0.23912043  0.15158474     0.05230
C117        C  0.38931607  0.26641638  0.14510414    -0.07060
C118        C  0.39351162  0.28342030  0.10729344    -0.07810
C119        C  0.37076268  0.27481673  0.07723170    -0.02360
C120        C  0.34244164  0.24915600  0.08631661     0.04460
N121        N  0.31721328  0.24148021  0.05983642     0.66960
H122        H  0.31714146  0.21116894  0.12903420     0.15860
H123        H  0.41509649  0.30332021  0.10076929     0.15570
N124        N  0.41259369  0.27816286  0.17667244     0.74670
O125        O  0.29690281  0.21454423  0.05593897    -0.38780
O126        O  0.31323110  0.26161541  0.54483374    -0.38720
O127        O  0.41426407  0.26160104  0.20488645    -0.39430
O128        O  0.43160400  0.30578656  0.17690750    -0.39490
C129        C  0.39189021  0.27796178  0.39020866    -0.11780
C130        C  0.36845628  0.27555939  0.41597235     0.05230
C131        C  0.33864109  0.25451770  0.40563396    -0.07060
C132        C  0.33317453  0.23551888  0.37064452    -0.07810
C133        C  0.35667694  0.23706468  0.34555564    -0.02360
C134        C  0.38648330  0.25879834  0.35569849     0.04460
N135        N  0.41165724  0.26069218  0.33332943     0.66960
H136        H  0.41475499  0.29365359  0.39871214     0.15860
H137        H  0.31028424  0.21950162  0.36280862     0.15570
N138        N  0.31381934  0.25236582  0.42990793     0.74670
O139        O  0.43264984  0.28569036  0.31939432    -0.38780
O140        O  0.41584077  0.23905375  0.33563832    -0.38720
O141        O  0.31570953  0.27528520  0.44621082    -0.39430
O142        O  0.28895416  0.22815388  0.43156536    -0.39490
C143        C  0.08135672  0.04938827  0.02840399    -0.11780
C144        C  0.06236078  0.02209013  0.00851253     0.05230
C145        C  0.07517358  0.50693067  0.48832387    -0.07060
C146        C  0.10592780  0.51839233  0.99107266    -0.07810
C147        C  0.12479198  0.04573968  0.01058726    -0.02360
C148        C  0.11241809  0.06194529  0.02839150     0.04460
N149        N  0.13075641  0.09202964  0.04298991     0.66960
H150        H  0.07209507  0.06142481  0.04378340     0.15860
H151        H  0.11555043  0.50668335  0.97560119     0.15570
N152        N  0.05791101  0.48125242  0.46220807     0.74670
O153        O  0.12390436  0.11124519  0.53381462    -0.38780
O154        O  0.15120720  0.09864035  0.06947322    -0.38720
O155        O  0.04106642  0.48168625  0.43386286    -0.39430
O156        O  0.06271291  0.45998470  0.96298562    -0.39490
C157        C  0.41008069  0.38823947  0.01412364    -0.11780
C158        C  0.42144951  0.37192945  0.99467283     0.05230
C159        C  0.45166337  0.38696992  0.48026033    -0.07060
C160        C  0.46907110  0.41802387  0.48377228    -0.07810
C161        C  0.45803164  0.43454267  0.00385609    -0.02360
C162        C  0.42815382  0.41910104  0.02004348     0.04460
N163        N  0.41656703  0.43368415  0.04571919     0.66960
H164        H  0.38734438  0.37651395  0.02701261     0.15860
H165        H  0.49171045  0.42929793  0.47070626     0.15570
N166        N  0.46588293  0.37129338  0.46510969     0.74670
O167        O  0.39001914  0.42742551  0.54120900    -0.38780
O168        O  0.43078098  0.44840482  0.07800362    -0.38720
O169        O  0.45359813  0.35092882  0.43781140    -0.39430
O170        O  0.49247316  0.38027924  0.97513352    -0.39490
C171        C  0.99171666  0.06504088  0.46934970    -0.11780
C172        C  0.47699362  0.03958240  0.49668041     0.05230
C173        C  0.45294309  0.03551895  0.02341798    -0.07060
C174        C  0.44363135  0.05612694  0.02120843    -0.07810
C175        C  0.45899528  0.08212915  0.49531103    -0.02360
C176        C  0.48366156  0.08686085  0.46926299     0.04460
N177        N  0.00163294  0.11408276  0.44450610     0.66960
H178        H  0.01037204  0.06850142  0.44906252     0.15860
H179        H  0.42477413  0.05232549  0.04135488     0.15570
N180        N  0.43937639  0.01211409  0.05563411     0.74670
O181        O  0.01530123  0.11409602  0.91044421    -0.38780
O182        O  0.00721972  0.13874207  0.45952818    -0.38720
O183        O  0.45551474  0.50973304  0.08327857    -0.39430
O184        O  0.41139144  0.49780010  0.56163355    -0.39490
C185        C  0.48804270  0.01848390  0.99885504     0.03620
C186        C  0.01876733  0.02961153  0.00186187    -0.12530
C187        C  0.02955371  0.01029948  0.50826989     0.01120
C188        C  0.00889614  0.47964274  0.51372054    -0.11050
C189        C  0.47831849  0.46763648  0.50656480     0.03610
C190        C  0.46813269  0.48738913  0.99878919    -0.10470
H191        H  0.03427481  0.05343188  0.99933487     0.09210
H192        H  0.01688325  0.46488904  0.52195299     0.06740
H193        H  0.44481071  0.47874756  0.99247529     0.06580
C194        C  0.40237987  0.33903351  0.49491209     0.03620
C195        C  0.39229510  0.32351243  0.95617923    -0.12530
C196        C  0.37601526  0.29224420  0.95671451     0.01120
C197        C  0.36910659  0.27657814  0.49630464    -0.11050
C198        C  0.37767173  0.29180106  0.53553198     0.03610
C199        C  0.39441350  0.32313197  0.53445479    -0.10470
H200        H  0.39787463  0.33571002  0.92560154     0.09210
H201        H  0.35758473  0.25243516  0.49640489     0.06740
H202        H  0.40165376  0.33524579  0.56434895     0.06580
C203        C  0.44817525  0.10334026  0.99632623     0.03620
C204        C  0.44095538  0.11250141  0.95787031    -0.12530
C205        C  0.42677339  0.12907890  0.95951162     0.01120
C206        C  0.41961512  0.13619787  0.99975089    -0.11050
C207        C  0.42599873  0.12657840  0.53813619     0.03610
C208        C  0.44112786  0.11107038  0.53639251    -0.10470
H209        H  0.44476268  0.10531118  0.92691977     0.09210
H210        H  0.40724514  0.14758328  0.00120662     0.06740
H211        H  0.44552570  0.10321460  0.56626911     0.06580
O212        O  0.27619549  0.13925122  0.78216739    -0.84860
O213        O  0.32293416  0.19471262  0.80473907    -0.81900
C214        C  0.34939927  0.21610393  0.80911584     0.98610
O215        O  0.36952154  0.22014725  0.78175016    -0.81940
O216        O  0.38010456  0.17560173  0.80404749    -0.84580
C217        C  0.37364572  0.14918304  0.81120014     1.03130
O218        O  0.35575227  0.12816279  0.78738837    -0.77340
O219        O  0.29960070  0.11774176  0.80610059    -0.77530
C220        C  0.27797636  0.12185637  0.80884137     1.03080
O221        O  0.29351529  0.15506559  0.69304641    -0.84850
O222        O  0.33478952  0.21246291  0.71484960    -0.81920
C223        C  0.35572885  0.21835061  0.68806253     0.98620
O224        O  0.37086937  0.20608673  0.69193307    -0.81940
O225        O  0.38645843  0.16537338  0.71479409    -0.84550
C226        C  0.37156335  0.14335864  0.69072538     1.03100
O227        O  0.34373124  0.12688611  0.69668415    -0.77370
O228        O  0.28623194  0.11192312  0.71519324    -0.77520
C229        C  0.28167259  0.12733217  0.68811070     1.03060
Cr230      Cr  0.30885850  0.17447121  0.74885883     1.93740
Cr231      Cr  0.37374811  0.18973661  0.74821811     1.93210
Cr232      Cr  0.32233921  0.12413577  0.75127869     1.39100
O233        O  0.33504547  0.16269404  0.74963513    -1.22610
C234        C  0.15737758  0.05805189  0.50707072     0.03620
C235        C  0.17437866  0.06319045  0.54419329    -0.12530
C236        C  0.20553886  0.07709241  0.54049336     0.01120
C237        C  0.21925502  0.08294176  0.49928303    -0.11050
C238        C  0.20247243  0.07716671  0.96204045     0.03610
C239        C  0.17153334  0.06476686  0.96598510    -0.10470
H240        H  0.16359579  0.05797892  0.57595009     0.09210
H241        H  0.24333244  0.09362157  0.49622181     0.06740
H242        H  0.15861267  0.06098764  0.93719280     0.06580
C243        C  0.23120764  0.07092305  0.90318028    -0.11780
C244        C  0.21818379  0.08656666  0.91951023     0.05230
C245        C  0.22169978  0.11156682  0.89614468    -0.07060
C246        C  0.24022495  0.12157619  0.85884870    -0.07810
C247        C  0.25490621  0.10708925  0.84391447    -0.02360
C248        C  0.24864375  0.08017792  0.86475529     0.04460
N249        N  0.25845290  0.06135562  0.84658019     0.66960
H250        H  0.22728526  0.05104109  0.92030478     0.15860
H251        H  0.24435919  0.14180234  0.84258295     0.15570
N252        N  0.20763257  0.12766609  0.91012958     0.74670
O253        O  0.26171616  0.04374438  0.87074657    -0.38780
O254        O  0.25889205  0.05851631  0.80611941    -0.38660
O255        O  0.20447091  0.13110199  0.94978638    -0.39430
O256        O  0.20052954  0.14071495  0.88261140    -0.39490
C257        C  0.22167773  0.07077431  0.61357539    -0.11780
C258        C  0.22428811  0.08948024  0.57895551     0.05230
C259        C  0.24561760  0.12023034  0.58049896    -0.07060
C260        C  0.26429267  0.13163334  0.61579636    -0.07810
C261        C  0.26204916  0.11313275  0.65064336    -0.02360
C262        C  0.24055696  0.08215115  0.64910824     0.04460
N263        N  0.23741226  0.06191449  0.68308711     0.66960
H264        H  0.20541682  0.04708532  0.61246972     0.15860
H265        H  0.28043239  0.15537574  0.61610249     0.15570
N266        N  0.24795947  0.14034102  0.54687487     0.74670
O267        O  0.21236343  0.04591654  0.70204180    -0.38780
O268        O  0.25733331  0.05540826  0.68748504    -0.38720
O269        O  0.22563886  0.14232110  0.53767862    -0.39430
O270        O  0.27239777  0.15623124  0.52638631    -0.39490
C271        C  0.36853402  0.11722756  0.62266272    -0.11780
C272        C  0.38653687  0.13705992  0.65455573     0.05230
C273        C  0.41806262  0.15143066  0.64952845    -0.07060
C274        C  0.43051275  0.14729786  0.61152631    -0.07810
C275        C  0.41231287  0.12839241  0.57924103    -0.02360
C276        C  0.38095651  0.11229550  0.58551162     0.04460
N277        N  0.36147409  0.09087577  0.55466141     0.66960
H278        H  0.34445887  0.10549989  0.62646177     0.15860
H279        H  0.45455678  0.15893011  0.60705235     0.15570
N280        N  0.43773978  0.16974787  0.68264089     0.74670
O281        O  0.33539037  0.08597340  0.55011171    -0.38780
O282        O  0.36893615  0.07444566  0.53543291    -0.38720
O283        O  0.43415395  0.15949562  0.72080282    -0.39430
O284        O  0.46150173  0.19382714  0.67246217    -0.39490
C285        C  0.41847846  0.15610155  0.84851581    -0.11780
C286        C  0.38732367  0.14279210  0.84773937     0.05230
C287        C  0.36971959  0.12500572  0.88321025    -0.07060
C288        C  0.38344123  0.12142543  0.91906852    -0.07810
C289        C  0.41452827  0.13459018  0.92017001    -0.02360
C290        C  0.43245157  0.15198116  0.88421178     0.04460
N291        N  0.46449795  0.16611239  0.88364747     0.66960
H292        H  0.43195930  0.17003021  0.82130006     0.15860
H293        H  0.36957364  0.10764409  0.94616753     0.15570
N294        N  0.33786421  0.11038730  0.88335279     0.74670
O295        O  0.47883184  0.17177342  0.84810227    -0.38780
O296        O  0.47885834  0.17530140  0.91807105    -0.38720
O297        O  0.32356756  0.09025540  0.85638067    -0.39430
O298        O  0.32405452  0.11273970  0.91548640    -0.39490
C299        C  0.33862096  0.23129981  0.62273795    -0.11780
C300        C  0.36178932  0.23912042  0.65158474     0.05230
C301        C  0.38931607  0.26641641  0.64510420    -0.07060
C302        C  0.39351164  0.28342033  0.60729349    -0.07810
C303        C  0.37076273  0.27481672  0.57723169    -0.02360
C304        C  0.34244171  0.24915596  0.58631653     0.04460
N305        N  0.31721337  0.24148012  0.55983627     0.66960
H306        H  0.31714153  0.21116887  0.62903407     0.15860
H307        H  0.41509649  0.30332027  0.60076940     0.15570
N308        N  0.41259364  0.27816292  0.67667256     0.74670
O309        O  0.29690300  0.21454412  0.55593867    -0.38780
O310        O  0.31323108  0.26161554  0.04483385    -0.38720
O311        O  0.41426406  0.26160110  0.70488655    -0.39430
O312        O  0.43160389  0.30578663  0.67690770    -0.39490
C313        C  0.39189017  0.27796177  0.89020867    -0.11780
C314        C  0.36845622  0.27555936  0.91597237     0.05230
C315        C  0.33864103  0.25451766  0.90563398    -0.07060
C316        C  0.33317450  0.23551884  0.87064453    -0.07810
C317        C  0.35667692  0.23706467  0.84555565    -0.02360
C318        C  0.38648327  0.25879834  0.85569850     0.04460
N319        N  0.41165722  0.26069219  0.83332945     0.66960
H320        H  0.41475493  0.29365360  0.89871215     0.15860
H321        H  0.31028421  0.21950157  0.86280863     0.15570
N322        N  0.31381928  0.25236576  0.92990795     0.74670
O323        O  0.43264980  0.28569038  0.81939434    -0.38780
O324        O  0.41584077  0.23905378  0.83563833    -0.38720
O325        O  0.31570944  0.27528512  0.94621083    -0.39430
O326        O  0.28895410  0.22815380  0.93156538    -0.39490
C327        C  0.08135671  0.04938825  0.52840399    -0.11780
C328        C  0.06236077  0.02209011  0.50851252     0.05230
C329        C  0.07517358  0.50693068  0.98832386    -0.07060
C330        C  0.10592781  0.51839232  0.49107267    -0.07810
C331        C  0.12479196  0.04573965  0.51058725    -0.02360
C332        C  0.11241807  0.06194526  0.52839151     0.04460
N333        N  0.13075640  0.09202960  0.54298995     0.66960
H334        H  0.07209506  0.06142479  0.54378341     0.15860
H335        H  0.11555044  0.50668335  0.47560121     0.15570
N336        N  0.05791100  0.48125242  0.96220806     0.74670
O337        O  0.12390431  0.11124521  0.03381465    -0.38780
O338        O  0.15120711  0.09864025  0.56947340    -0.38720
O339        O  0.04106641  0.48168626  0.93386286    -0.39430
O340        O  0.06271292  0.45998469  0.46298564    -0.39490
C341        C  0.41008072  0.38823948  0.51412368    -0.11780
C342        C  0.42144954  0.37192946  0.49467284     0.05230
C343        C  0.45166335  0.38696989  0.98026033    -0.07060
C344        C  0.46907107  0.41802385  0.98377226    -0.07810
C345        C  0.45803167  0.43454268  0.50385612    -0.02360
C346        C  0.42815384  0.41910104  0.52004353     0.04460
N347        N  0.41656706  0.43368415  0.54571925     0.66960
H348        H  0.38734441  0.37651395  0.52701266     0.15860
H349        H  0.49171043  0.42929791  0.97070625     0.15570
N350        N  0.46588290  0.37129335  0.96510972     0.74670
O351        O  0.39001912  0.42742552  0.04120891    -0.38780
O352        O  0.43078101  0.44840483  0.57800368    -0.38720
O353        O  0.45359808  0.35092874  0.93781151    -0.39430
O354        O  0.49247317  0.38027923  0.47513355    -0.39490
C355        C  0.99171667  0.06504089  0.96934970    -0.11780
C356        C  0.47699363  0.03958241  0.99668041     0.05230
C357        C  0.45294305  0.03551893  0.52341795    -0.07060
C358        C  0.44363132  0.05612692  0.52120839    -0.07810
C359        C  0.45899529  0.08212915  0.99531105    -0.02360
C360        C  0.48366155  0.08686084  0.96926296     0.04460
N361        N  0.00163294  0.11408277  0.94450609     0.66960
H362        H  0.01037204  0.06850142  0.94906252     0.15860
H363        H  0.42477409  0.05232547  0.54135481     0.15570
N364        N  0.43937633  0.01211406  0.55563404     0.74670
O365        O  0.01530124  0.11409602  0.41044422    -0.38780
O366        O  0.00721972  0.13874208  0.95952818    -0.38720
O367        O  0.45551470  0.50973303  0.58327858    -0.39430
O368        O  0.41139147  0.49780012  0.06163362    -0.39490
C369        C  0.48804270  0.51848392  0.49885509     0.03620
C370        C  0.01876733  0.52961153  0.50186187    -0.12530
C371        C  0.02955372  0.51029949  0.00826992     0.01120
C372        C  0.00889614  0.97964275  0.01372053    -0.11050
C373        C  0.47831848  0.96763645  0.00656474     0.03610
C374        C  0.46813269  0.98738912  0.49878919    -0.10470
H375        H  0.03427481  0.55343188  0.49933488     0.09210
H376        H  0.01688325  0.96488905  0.02195298     0.06740
H377        H  0.44481070  0.97874755  0.49247529     0.06580
C378        C  0.40237981  0.83903348  0.99491208     0.03620
C379        C  0.39229507  0.82351241  0.45617923    -0.12530
C380        C  0.37601522  0.79224418  0.45671452     0.01120
C381        C  0.36910647  0.77657811  0.99630467    -0.11050
C382        C  0.37767164  0.79180104  0.03553200     0.03610
C383        C  0.39441343  0.82313195  0.03445479    -0.10470
H384        H  0.39787460  0.83571000  0.42560155     0.09210
H385        H  0.35758457  0.75243513  0.99640494     0.06740
H386        H  0.40165372  0.83524578  0.06434894     0.06580
C387        C  0.44817526  0.60334029  0.49632622     0.03620
C388        C  0.44095540  0.61250144  0.45787030    -0.12530
C389        C  0.42677341  0.62907893  0.45951161     0.01120
C390        C  0.41961514  0.63619791  0.49975089    -0.11050
C391        C  0.42599875  0.62657843  0.03813620     0.03610
C392        C  0.44112788  0.61107040  0.03639252    -0.10470
H393        H  0.44476269  0.60531121  0.42691976     0.09210
H394        H  0.40724516  0.64758332  0.50120662     0.06740
H395        H  0.44552571  0.60321463  0.06626912     0.06580
O396        O  0.27619547  0.63925119  0.28216738    -0.84860
O397        O  0.32293413  0.69471259  0.30473908    -0.81900
C398        C  0.34939923  0.71610392  0.30911585     0.98610
O399        O  0.36952150  0.72014725  0.28175017    -0.81940
O400        O  0.38010455  0.67560175  0.30404748    -0.84580
C401        C  0.37364573  0.64918306  0.31120014     1.03130
O402        O  0.35575227  0.62816280  0.28738838    -0.77340
O403        O  0.29960069  0.61774175  0.30610058    -0.77530
C404        C  0.27797634  0.62185635  0.30884136     1.03080
O405        O  0.29351528  0.65506557  0.19304641    -0.84850
O406        O  0.33478949  0.71246290  0.21484962    -0.81920
C407        C  0.35572881  0.71835061  0.18806254     0.98620
O408        O  0.37086933  0.70608673  0.19193307    -0.81940
O409        O  0.38645842  0.66537340  0.21479407    -0.84550
C410        C  0.37156335  0.64335865  0.19072538     1.03100
O411        O  0.34373125  0.62688612  0.19668416    -0.77370
O412        O  0.28623195  0.61192311  0.21519323    -0.77520
C413        C  0.28167259  0.62733216  0.18811069     1.03060
Cr414      Cr  0.30885847  0.67447119  0.24885884     1.93740
Cr415      Cr  0.37374809  0.68973662  0.24821811     1.93210
Cr416      Cr  0.32233921  0.62413577  0.25127869     1.39100
O417        O  0.33504546  0.66269404  0.24963513    -1.22610
C418        C  0.15737759  0.55805191  0.00707072     0.03620
C419        C  0.17437868  0.56319048  0.04419327    -0.12530
C420        C  0.20553889  0.57709243  0.04049333     0.01120
C421        C  0.21925503  0.58294176  0.99928298    -0.11050
C422        C  0.20247242  0.57716669  0.46204043     0.03610
C423        C  0.17153333  0.56476684  0.46598510    -0.10470
H424        H  0.16359582  0.55797897  0.07595008     0.09210
H425        H  0.24333245  0.59362156  0.99622175     0.06740
H426        H  0.15861266  0.56098762  0.43719280     0.06580
C427        C  0.23120763  0.57092302  0.40318027    -0.11780
C428        C  0.21818377  0.58656663  0.41951021     0.05230
C429        C  0.22169975  0.61156678  0.39614466    -0.07060
C430        C  0.24022493  0.62157616  0.35884867    -0.07810
C431        C  0.25490619  0.60708922  0.34391446    -0.02360
C432        C  0.24864374  0.58017790  0.36475528     0.04460
N433        N  0.25845290  0.56135560  0.34658018     0.66960
H434        H  0.22728526  0.55104107  0.42030478     0.15860
H435        H  0.24435916  0.64180230  0.34258293     0.15570
N436        N  0.20763254  0.62766604  0.41012955     0.74670
O437        O  0.26171617  0.54374437  0.37074658    -0.38780
O438        O  0.25889205  0.55851630  0.30611941    -0.38660
O439        O  0.20447088  0.63110196  0.44978634    -0.39430
O440        O  0.20052950  0.64071490  0.38261137    -0.39490
C441        C  0.22167769  0.57077434  0.11357540    -0.11780
C442        C  0.22428815  0.58948026  0.07895546     0.05230
C443        C  0.24561772  0.62023035  0.08049886    -0.07060
C444        C  0.26429278  0.63163333  0.11579628    -0.07810
C445        C  0.26204918  0.61313274  0.15064334    -0.02360
C446        C  0.24055692  0.58215116  0.14910826     0.04460
N447        N  0.23741213  0.56191451  0.18308719     0.66960
H448        H  0.20541673  0.54708536  0.11246977     0.15860
H449        H  0.28043256  0.65537572  0.11610237     0.15570
N450        N  0.24795968  0.64034104  0.04687472     0.74670
O451        O  0.21236327  0.54591663  0.20204185    -0.38780
O452        O  0.25733312  0.55540821  0.18748521    -0.38720
O453        O  0.22563910  0.64232112  0.03767829    -0.39430
O454        O  0.27239808  0.65623141  0.02638647    -0.39490
C455        C  0.36853403  0.61722758  0.12266272    -0.11780
C456        C  0.38653688  0.63705994  0.15455573     0.05230
C457        C  0.41806262  0.65143069  0.14952845    -0.07060
C458        C  0.43051276  0.64729789  0.11152632    -0.07810
C459        C  0.41231289  0.62839243  0.07924104    -0.02360
C460        C  0.38095653  0.61229552  0.08551163     0.04460
N461        N  0.36147411  0.59087578  0.05466141     0.66960
H462        H  0.34445888  0.60549991  0.12646177     0.15860
H463        H  0.45455679  0.65893015  0.10705236     0.15570
N464        N  0.43773979  0.66974790  0.18264089     0.74670
O465        O  0.33539039  0.58597341  0.05011171    -0.38780
O466        O  0.36893617  0.57444568  0.03543291    -0.38720
O467        O  0.43415396  0.65949566  0.22080282    -0.39430
O468        O  0.46150173  0.69382718  0.17246217    -0.39490
C469        C  0.41847847  0.65610156  0.34851580    -0.11780
C470        C  0.38732367  0.64279213  0.34773937     0.05230
C471        C  0.36971960  0.62500576  0.38321027    -0.07060
C472        C  0.38344125  0.62142548  0.41906853    -0.07810
C473        C  0.41452828  0.63459022  0.42017001    -0.02360
C474        C  0.43245158  0.65198119  0.38421177     0.04460
N475        N  0.46449796  0.66611241  0.38364744     0.66960
H476        H  0.43195931  0.67003022  0.32130003     0.15860
H477        H  0.36957365  0.60764415  0.44616755     0.15570
N478        N  0.33786422  0.61038735  0.38335281     0.74670
O479        O  0.47883185  0.67177342  0.34810224    -0.38780
O480        O  0.47885836  0.67530142  0.41807102    -0.38720
O481        O  0.32356756  0.59025543  0.35638072    -0.39430
O482        O  0.32405454  0.61273977  0.41548642    -0.39490
C483        C  0.33862088  0.73129985  0.12273806    -0.11780
C484        C  0.36178927  0.73912043  0.15158475     0.05230
C485        C  0.38931605  0.76641638  0.14510415    -0.07060
C486        C  0.39351160  0.78342029  0.10729343    -0.07810
C487        C  0.37076265  0.77481672  0.07723171    -0.02360
C488        C  0.34244161  0.74915601  0.08631664     0.04460
N489        N  0.31721324  0.74148022  0.05983646     0.66960
H490        H  0.31714143  0.71116895  0.12903424     0.15860
H491        H  0.41509646  0.80332020  0.10076927     0.15570
N492        N  0.41259368  0.77816286  0.17667243     0.74670
O493        O  0.29690275  0.71454424  0.05593904    -0.38780
O494        O  0.31323107  0.76161558  0.54483390    -0.38720
O495        O  0.41426403  0.76160105  0.20488649    -0.39430
O496        O  0.43160401  0.80578656  0.17690745    -0.39490
C497        C  0.39189012  0.77796176  0.39020868    -0.11780
C498        C  0.36845617  0.77555934  0.41597239     0.05230
C499        C  0.33864099  0.75451762  0.40563400    -0.07060
C500        C  0.33317445  0.73551881  0.37064455    -0.07810
C501        C  0.35667687  0.73706464  0.34555567    -0.02360
C502        C  0.38648322  0.75879832  0.35569851     0.04460
N503        N  0.41165718  0.76069219  0.33332945     0.66960
H504        H  0.41475489  0.79365358  0.39871216     0.15860
H505        H  0.31028417  0.71950153  0.36280866     0.15570
N506        N  0.31381923  0.75236572  0.42990798     0.74670
O507        O  0.43264976  0.78569038  0.31939434    -0.38780
O508        O  0.41584073  0.73905378  0.33563833    -0.38720
O509        O  0.31570939  0.77528508  0.44621086    -0.39430
O510        O  0.28895406  0.72815376  0.43156541    -0.39490
C511        C  0.08135672  0.54938827  0.02840400    -0.11780
C512        C  0.06236077  0.52209012  0.00851255     0.05230
C513        C  0.07517357  0.00693066  0.48832382    -0.07060
C514        C  0.10592781  0.01839233  0.99107265    -0.07810
C515        C  0.12479197  0.54573968  0.01058726    -0.02360
C516        C  0.11241808  0.56194529  0.02839151     0.04460
N517        N  0.13075641  0.59202964  0.04298990     0.66960
H518        H  0.07209507  0.56142480  0.04378341     0.15860
H519        H  0.11555045  0.00668336  0.97560118     0.15570
N520        N  0.05791099  0.98125241  0.46220801     0.74670
O521        O  0.12390430  0.61124520  0.53381467    -0.38780
O522        O  0.15120723  0.59864037  0.06947317    -0.38720
O523        O  0.04106640  0.98168626  0.43386282    -0.39430
O524        O  0.06271292  0.95998470  0.96298562    -0.39490
C525        C  0.41008068  0.88823947  0.01412360    -0.11780
C526        C  0.42144950  0.87192943  0.99467282     0.05230
C527        C  0.45166334  0.88696987  0.48026032    -0.07060
C528        C  0.46907106  0.91802383  0.48377226    -0.07810
C529        C  0.45803164  0.93454265  0.00385607    -0.02360
C530        C  0.42815380  0.91910103  0.02004344     0.04460
N531        N  0.41656701  0.93368414  0.04571911     0.66960
H532        H  0.38734436  0.87651394  0.02701254     0.15860
H533        H  0.49171041  0.92929789  0.47070624     0.15570
N534        N  0.46588289  0.87129332  0.46510971     0.74670
O535        O  0.39001912  0.92742551  0.54120894    -0.38780
O536        O  0.43078094  0.94840481  0.07800357    -0.38720
O537        O  0.45359804  0.85092869  0.43781154    -0.39430
O538        O  0.49247317  0.88027924  0.97513354    -0.39490
C539        C  0.99171667  0.56504089  0.46934970    -0.11780
C540        C  0.47699363  0.53958242  0.49668043     0.05230
C541        C  0.45294307  0.53551896  0.02341796    -0.07060
C542        C  0.44363134  0.55612695  0.02120840    -0.07810
C543        C  0.45899528  0.58212917  0.49531104    -0.02360
C544        C  0.48366157  0.58686087  0.46926300     0.04460
N545        N  0.00163294  0.61408276  0.44450609     0.66960
H546        H  0.01037204  0.56850142  0.44906252     0.15860
H547        H  0.42477411  0.55232550  0.04135484     0.15570
N548        N  0.43937635  0.51211409  0.05563406     0.74670
O549        O  0.01530129  0.61409605  0.91044428    -0.38780
O550        O  0.00721972  0.63874207  0.45952817    -0.38720
O551        O  0.45551480  0.00973304  0.08327857    -0.39430
O552        O  0.41139145  0.99780009  0.56163358    -0.39490
C553        C  0.48804270  0.51848391  0.99885506     0.03620
C554        C  0.01876732  0.52961152  0.00186189    -0.12530
C555        C  0.02955373  0.51029949  0.50826991     0.01120
C556        C  0.00889613  0.97964273  0.51372052    -0.11050
C557        C  0.47831847  0.96763645  0.50656476     0.03610
C558        C  0.46813269  0.98738912  0.99878916    -0.10470
H559        H  0.03427480  0.55343188  0.99933490     0.09210
H560        H  0.01688323  0.96488903  0.52195296     0.06740
H561        H  0.44481071  0.97874756  0.99247526     0.06580
C562        C  0.40237981  0.83903348  0.49491209     0.03620
C563        C  0.39229508  0.82351241  0.95617922    -0.12530
C564        C  0.37601523  0.79224418  0.95671451     0.01120
C565        C  0.36910646  0.77657811  0.49630468    -0.11050
C566        C  0.37767164  0.79180104  0.53553200     0.03610
C567        C  0.39441344  0.82313195  0.53445480    -0.10470
H568        H  0.39787461  0.83571000  0.92560154     0.09210
H569        H  0.35758456  0.75243512  0.49640495     0.06740
H570        H  0.40165372  0.83524577  0.56434895     0.06580
C571        C  0.44817527  0.60334029  0.99632623     0.03620
C572        C  0.44095540  0.61250145  0.95787031    -0.12530
C573        C  0.42677342  0.62907894  0.95951162     0.01120
C574        C  0.41961515  0.63619792  0.99975090    -0.11050
C575        C  0.42599874  0.62657842  0.53813619     0.03610
C576        C  0.44112787  0.61107040  0.53639251    -0.10470
H577        H  0.44476270  0.60531121  0.92691977     0.09210
H578        H  0.40724518  0.64758333  0.00120663     0.06740
H579        H  0.44552571  0.60321462  0.56626911     0.06580
O580        O  0.27619547  0.63925119  0.78216738    -0.84860
O581        O  0.32293414  0.69471259  0.80473908    -0.81900
C582        C  0.34939924  0.71610391  0.80911585     0.98610
O583        O  0.36952151  0.72014724  0.78175017    -0.81940
O584        O  0.38010456  0.67560175  0.80404748    -0.84580
C585        C  0.37364573  0.64918305  0.81120014     1.03130
O586        O  0.35575227  0.62816280  0.78738839    -0.77340
O587        O  0.29960070  0.61774174  0.80610059    -0.77530
C588        C  0.27797634  0.62185634  0.80884137     1.03080
O589        O  0.29351528  0.65506557  0.69304642    -0.84850
O590        O  0.33478949  0.71246289  0.71484962    -0.81920
C591        C  0.35572882  0.71835060  0.68806254     0.98620
O592        O  0.37086933  0.70608672  0.69193307    -0.81940
O593        O  0.38645842  0.66537339  0.71479408    -0.84550
C594        C  0.37156335  0.64335864  0.69072538     1.03100
O595        O  0.34373125  0.62688611  0.69668417    -0.77370
O596        O  0.28623195  0.61192310  0.71519324    -0.77520
C597        C  0.28167260  0.62733215  0.68811070     1.03060
Cr598      Cr  0.30885848  0.67447119  0.74885884     1.93740
Cr599      Cr  0.37374809  0.68973661  0.74821811     1.93210
Cr600      Cr  0.32233921  0.62413577  0.75127870     1.39100
O601        O  0.33504546  0.66269403  0.74963514    -1.22610
C602        C  0.15737759  0.55805191  0.50707072     0.03620
C603        C  0.17437869  0.56319048  0.54419328    -0.12530
C604        C  0.20553890  0.57709244  0.54049333     0.01120
C605        C  0.21925504  0.58294176  0.49928298    -0.11050
C606        C  0.20247242  0.57716668  0.96204043     0.03610
C607        C  0.17153333  0.56476684  0.96598510    -0.10470
H608        H  0.16359583  0.55797897  0.57595008     0.09210
H609        H  0.24333246  0.59362156  0.49622174     0.06740
H610        H  0.15861265  0.56098762  0.93719280     0.06580
C611        C  0.23120763  0.57092302  0.90318028    -0.11780
C612        C  0.21818377  0.58656662  0.91951021     0.05230
C613        C  0.22169975  0.61156678  0.89614466    -0.07060
C614        C  0.24022492  0.62157615  0.85884867    -0.07810
C615        C  0.25490619  0.60708922  0.84391446    -0.02360
C616        C  0.24864375  0.58017790  0.86475529     0.04460
N617        N  0.25845291  0.56135560  0.84658021     0.66960
H618        H  0.22728527  0.55104107  0.92030479     0.15860
H619        H  0.24435915  0.64180229  0.84258292     0.15570
N620        N  0.20763253  0.62766603  0.91012954     0.74670
O621        O  0.26171618  0.54374437  0.87074661    -0.38780
O622        O  0.25889206  0.55851629  0.80611943    -0.38660
O623        O  0.20447087  0.63110195  0.94978633    -0.39430
O624        O  0.20052948  0.64071488  0.88261135    -0.39490
C625        C  0.22167770  0.57077434  0.61357540    -0.11780
C626        C  0.22428816  0.58948027  0.57895546     0.05230
C627        C  0.24561773  0.62023035  0.58049885    -0.07060
C628        C  0.26429280  0.63163332  0.61579628    -0.07810
C629        C  0.26204919  0.61313274  0.65064334    -0.02360
C630        C  0.24055692  0.58215116  0.64910826     0.04460
N631        N  0.23741213  0.56191450  0.68308720     0.66960
H632        H  0.20541673  0.54708536  0.61246977     0.15860
H633        H  0.28043258  0.65537572  0.61610238     0.15570
N634        N  0.24795971  0.64034105  0.54687472     0.74670
O635        O  0.21236327  0.54591662  0.70204184    -0.38780
O636        O  0.25733312  0.55540820  0.68748523    -0.38720
O637        O  0.22563913  0.64232113  0.53767828    -0.39430
O638        O  0.27239812  0.65623143  0.52638651    -0.39490
C639        C  0.36853403  0.61722757  0.62266272    -0.11780
C640        C  0.38653688  0.63705993  0.65455573     0.05230
C641        C  0.41806262  0.65143068  0.64952844    -0.07060
C642        C  0.43051276  0.64729789  0.61152631    -0.07810
C643        C  0.41231288  0.62839243  0.57924103    -0.02360
C644        C  0.38095652  0.61229551  0.58551163     0.04460
N645        N  0.36147410  0.59087577  0.55466141     0.66960
H646        H  0.34445887  0.60549989  0.62646178     0.15860
H647        H  0.45455678  0.65893015  0.60705234     0.15570
N648        N  0.43773979  0.66974790  0.68264088     0.74670
O649        O  0.33539038  0.58597340  0.55011172    -0.38780
O650        O  0.36893616  0.57444567  0.53543291    -0.38720
O651        O  0.43415396  0.65949566  0.72080281    -0.39430
O652        O  0.46150173  0.69382717  0.67246215    -0.39490
C653        C  0.41847848  0.65610156  0.84851580    -0.11780
C654        C  0.38732368  0.64279213  0.84773938     0.05230
C655        C  0.36971961  0.62500577  0.88321028    -0.07060
C656        C  0.38344126  0.62142549  0.91906854    -0.07810
C657        C  0.41452829  0.63459022  0.92017002    -0.02360
C658        C  0.43245159  0.65198119  0.88421177     0.04460
N659        N  0.46449797  0.66611240  0.88364744     0.66960
H660        H  0.43195931  0.67003022  0.82130003     0.15860
H661        H  0.36957366  0.60764416  0.94616756     0.15570
N662        N  0.33786423  0.61038736  0.88335283     0.74670
O663        O  0.47883185  0.67177342  0.84810224    -0.38780
O664        O  0.47885837  0.67530142  0.91807102    -0.38720
O665        O  0.32356757  0.59025543  0.85638074    -0.39430
O666        O  0.32405456  0.61273979  0.91548643    -0.39490
C667        C  0.33862087  0.73129986  0.62273808    -0.11780
C668        C  0.36178928  0.73912042  0.65158476     0.05230
C669        C  0.38931606  0.76641637  0.64510414    -0.07060
C670        C  0.39351161  0.78342027  0.60729342    -0.07810
C671        C  0.37076265  0.77481672  0.57723172    -0.02360
C672        C  0.34244161  0.74915601  0.58631666     0.04460
N673        N  0.31721323  0.74148023  0.55983650     0.66960
H674        H  0.31714142  0.71116896  0.62903427     0.15860
H675        H  0.41509647  0.80332018  0.60076925     0.15570
N676        N  0.41259369  0.77816284  0.67667240     0.74670
O677        O  0.29690272  0.71454427  0.55593911    -0.38780
O678        O  0.31323106  0.76161555  0.04483387    -0.38720
O679        O  0.41426405  0.76160103  0.70488647    -0.39430
O680        O  0.43160404  0.80578653  0.67690741    -0.39490
C681        C  0.39189013  0.77796175  0.89020868    -0.11780
C682        C  0.36845618  0.77555934  0.91597238     0.05230
C683        C  0.33864100  0.75451763  0.90563399    -0.07060
C684        C  0.33317446  0.73551882  0.87064454    -0.07810
C685        C  0.35667688  0.73706464  0.84555566    -0.02360
C686        C  0.38648323  0.75879832  0.85569851     0.04460
N687        N  0.41165719  0.76069218  0.83332945     0.66960
H688        H  0.41475490  0.79365358  0.89871216     0.15860
H689        H  0.31028417  0.71950154  0.86280865     0.15570
N690        N  0.31381924  0.75236573  0.92990796     0.74670
O691        O  0.43264977  0.78569037  0.81939434    -0.38780
O692        O  0.41584074  0.73905377  0.83563834    -0.38720
O693        O  0.31570940  0.77528509  0.94621084    -0.39430
O694        O  0.28895407  0.72815377  0.93156540    -0.39490
C695        C  0.08135672  0.54938827  0.52840400    -0.11780
C696        C  0.06236078  0.52209012  0.50851255     0.05230
C697        C  0.07517359  0.00693068  0.98832385    -0.07060
C698        C  0.10592779  0.01839231  0.49107262    -0.07810
C699        C  0.12479198  0.54573968  0.51058727    -0.02360
C700        C  0.11241809  0.56194529  0.52839151     0.04460
N701        N  0.13075641  0.59202964  0.54298991     0.66960
H702        H  0.07209507  0.56142480  0.54378340     0.15860
H703        H  0.11555043  0.00668334  0.47560114     0.15570
N704        N  0.05791101  0.98125242  0.96220805     0.74670
O705        O  0.12390429  0.61124520  0.03381467    -0.38780
O706        O  0.15120723  0.59864036  0.56947318    -0.38720
O707        O  0.04106642  0.98168626  0.93386285    -0.39430
O708        O  0.06271290  0.95998469  0.46298556    -0.39490
C709        C  0.41008068  0.88823946  0.51412365    -0.11780
C710        C  0.42144950  0.87192943  0.49467283     0.05230
C711        C  0.45166335  0.88696987  0.98026034    -0.07060
C712        C  0.46907107  0.91802383  0.98377227    -0.07810
C713        C  0.45803164  0.93454265  0.50385609    -0.02360
C714        C  0.42815381  0.91910102  0.52004349     0.04460
N715        N  0.41656703  0.93368414  0.54571920     0.66960
H716        H  0.38734437  0.87651394  0.52701262     0.15860
H717        H  0.49171043  0.92929788  0.97070627     0.15570
N718        N  0.46588290  0.87129332  0.96510977     0.74670
O719        O  0.39001911  0.92742553  0.04120879    -0.38780
O720        O  0.43078098  0.94840480  0.57800363    -0.38720
O721        O  0.45359806  0.85092865  0.93781165    -0.39430
O722        O  0.49247315  0.88027923  0.47513348    -0.39490
C723        C  0.99171668  0.56504090  0.96934973    -0.11780
C724        C  0.47699363  0.53958242  0.99668042     0.05230
C725        C  0.45294305  0.53551895  0.52341795    -0.07060
C726        C  0.44363132  0.55612694  0.52120838    -0.07810
C727        C  0.45899529  0.58212917  0.99531104    -0.02360
C728        C  0.48366157  0.58686086  0.96926298     0.04460
N729        N  0.00163297  0.61408279  0.94450614     0.66960
H730        H  0.01037206  0.56850143  0.94906256     0.15860
H731        H  0.42477408  0.55232549  0.54135480     0.15570
N732        N  0.43937632  0.51211407  0.55563404     0.74670
O733        O  0.01530123  0.61409601  0.41044421    -0.38780
O734        O  0.00721974  0.63874209  0.95952822    -0.38720
O735        O  0.45551471  0.00973301  0.58327856    -0.39430
O736        O  0.41139152  0.99780014  0.06163372    -0.39490
C737        C  0.98804271  0.01848392  0.49885508     0.03620
C738        C  0.51876730  0.02961149  0.50186185    -0.12530
C739        C  0.52955370  0.01029945  0.00826984     0.01120
C740        C  0.50889612  0.47964272  0.01372048    -0.11050
C741        C  0.97831850  0.46763648  0.00656482     0.03610
C742        C  0.96813272  0.48738915  0.49878921    -0.10470
H743        H  0.53427478  0.05343184  0.49933487     0.09210
H744        H  0.51688322  0.46488902  0.02195291     0.06740
H745        H  0.94481074  0.47874759  0.49247530     0.06580
C746        C  0.90237987  0.33903352  0.99491208     0.03620
C747        C  0.89229516  0.32351246  0.45617922    -0.12530
C748        C  0.87601533  0.29224423  0.45671448     0.01120
C749        C  0.86910661  0.27657815  0.99630461    -0.11050
C750        C  0.87767174  0.29180107  0.03553196     0.03610
C751        C  0.89441350  0.32313198  0.03445479    -0.10470
H752        H  0.89787468  0.33571006  0.42560154     0.09210
H753        H  0.85758476  0.25243517  0.99640486     0.06740
H754        H  0.90165375  0.33524579  0.06434895     0.06580
C755        C  0.94817525  0.10334028  0.49632623     0.03620
C756        C  0.94095538  0.11250142  0.45787030    -0.12530
C757        C  0.92677339  0.12907890  0.45951161     0.01120
C758        C  0.91961511  0.13619788  0.49975089    -0.11050
C759        C  0.92599872  0.12657841  0.03813620     0.03610
C760        C  0.94112786  0.11107039  0.03639251    -0.10470
H761        H  0.94476268  0.10531119  0.42691977     0.09210
H762        H  0.90724513  0.14758329  0.50120662     0.06740
H763        H  0.94552571  0.10321463  0.06626912     0.06580
O764        O  0.77619549  0.13925125  0.28216742    -0.84860
O765        O  0.82293418  0.19471264  0.30473907    -0.81900
C766        C  0.84939929  0.21610396  0.30911583     0.98610
O767        O  0.86952155  0.22014727  0.28175014    -0.81940
O768        O  0.88010455  0.17560174  0.30404749    -0.84580
C769        C  0.87364571  0.14918304  0.31120014     1.03130
O770        O  0.85575225  0.12816279  0.28738838    -0.77340
O771        O  0.79960069  0.11774177  0.30610060    -0.77530
C772        C  0.77797635  0.12185639  0.30884139     1.03080
O773        O  0.79351527  0.15506559  0.19304643    -0.84850
O774        O  0.83478952  0.21246291  0.21484958    -0.81920
C775        C  0.85572885  0.21835061  0.18806251     0.98620
O776        O  0.87086936  0.20608673  0.19193306    -0.81940
O777        O  0.88645841  0.16537337  0.21479409    -0.84550
C778        C  0.87156333  0.14335863  0.19072538     1.03100
O779        O  0.84373122  0.12688611  0.19668415    -0.77370
O780        O  0.78623193  0.11192313  0.21519325    -0.77520
C781        C  0.78167257  0.12733218  0.18811072     1.03060
Cr782      Cr  0.80885850  0.17447123  0.24885884     1.93740
Cr783      Cr  0.87374810  0.18973661  0.24821811     1.93210
Cr784      Cr  0.82233919  0.12413578  0.25127870     1.39100
O785        O  0.83504546  0.16269405  0.24963513    -1.22610
C786        C  0.65737757  0.05805187  0.00707071     0.03620
C787        C  0.67437864  0.06319044  0.04419328    -0.12530
C788        C  0.70553885  0.07709240  0.04049337     0.01120
C789        C  0.71925502  0.08294176  0.99928303    -0.11050
C790        C  0.70247242  0.07716671  0.46204047     0.03610
C791        C  0.67153333  0.06476685  0.46598511    -0.10470
H792        H  0.66359577  0.05797890  0.07595008     0.09210
H793        H  0.74333244  0.09362158  0.99622183     0.06740
H794        H  0.65861266  0.06098764  0.43719280     0.06580
C795        C  0.73120763  0.07092306  0.40318030    -0.11780
C796        C  0.71818379  0.08656667  0.41951026     0.05230
C797        C  0.72169979  0.11156685  0.39614474    -0.07060
C798        C  0.74022497  0.12157623  0.35884875    -0.07810
C799        C  0.75490621  0.10708927  0.34391451    -0.02360
C800        C  0.74864374  0.08017794  0.36475531     0.04460
N801        N  0.75845289  0.06135563  0.34658019     0.66960
H802        H  0.72728525  0.05104109  0.42030479     0.15860
H803        H  0.74435921  0.14180238  0.34258302     0.15570
N804        N  0.70763260  0.12766612  0.41012966     0.74670
O805        O  0.76171615  0.04374439  0.37074657    -0.38780
O806        O  0.75889202  0.05851633  0.30611942    -0.38660
O807        O  0.70447094  0.13110202  0.44978646    -0.39430
O808        O  0.70052958  0.14071500  0.38261150    -0.39490
C809        C  0.72167772  0.07077430  0.11357540    -0.11780
C810        C  0.72428809  0.08948023  0.07895552     0.05230
C811        C  0.74561756  0.12023034  0.08049898    -0.07060
C812        C  0.76429263  0.13163334  0.11579639    -0.07810
C813        C  0.76204914  0.11313275  0.15064338    -0.02360
C814        C  0.74055695  0.08215115  0.14910825     0.04460
N815        N  0.73741226  0.06191449  0.18308711     0.66960
H816        H  0.70541682  0.04708531  0.11246972     0.15860
H817        H  0.78043235  0.15537575  0.11610251     0.15570
N818        N  0.74795943  0.14034102  0.04687490     0.74670
O819        O  0.71236343  0.04591654  0.20204181    -0.38780
O820        O  0.75733331  0.05540827  0.18748503    -0.38720
O821        O  0.72563882  0.14232111  0.03767868    -0.39430
O822        O  0.77239770  0.15623118  0.02638625    -0.39490
C823        C  0.86853400  0.11722756  0.12266272    -0.11780
C824        C  0.88653685  0.13705991  0.15455574     0.05230
C825        C  0.91806260  0.15143065  0.14952846    -0.07060
C826        C  0.93051273  0.14729786  0.11152632    -0.07810
C827        C  0.91231286  0.12839241  0.07924103    -0.02360
C828        C  0.88095650  0.11229550  0.08551162     0.04460
N829        N  0.86147407  0.09087577  0.05466140     0.66960
H830        H  0.84445885  0.10549989  0.12646176     0.15860
H831        H  0.95455676  0.15893010  0.10705237     0.15570
N832        N  0.93773976  0.16974785  0.18264091     0.74670
O833        O  0.83539036  0.08597341  0.05011169    -0.38780
O834        O  0.86893614  0.07444566  0.03543290    -0.38720
O835        O  0.93415393  0.15949559  0.22080283    -0.39430
O836        O  0.96150171  0.19382712  0.17246220    -0.39490
C837        C  0.91847845  0.15610155  0.34851580    -0.11780
C838        C  0.88732366  0.14279210  0.34773937     0.05230
C839        C  0.86971958  0.12500573  0.38321026    -0.07060
C840        C  0.88344123  0.12142544  0.41906852    -0.07810
C841        C  0.91452826  0.13459019  0.42017001    -0.02360
C842        C  0.93245156  0.15198116  0.38421177     0.04460
N843        N  0.96449794  0.16611239  0.38364745     0.66960
H844        H  0.93195929  0.17003021  0.32130004     0.15860
H845        H  0.86957363  0.10764411  0.44616753     0.15570
N846        N  0.83786420  0.11038731  0.38335280     0.74670
O847        O  0.97883183  0.17177341  0.34810225    -0.38780
O848        O  0.97885834  0.17530140  0.41807103    -0.38720
O849        O  0.82356755  0.09025541  0.35638068    -0.39430
O850        O  0.82405452  0.11273972  0.41548641    -0.39490
C851        C  0.83862097  0.23129979  0.12273790    -0.11780
C852        C  0.86178932  0.23912042  0.15158471     0.05230
C853        C  0.88931606  0.26641642  0.14510421    -0.07060
C854        C  0.89351163  0.28342034  0.10729350    -0.07810
C855        C  0.87076273  0.27481672  0.07723167    -0.02360
C856        C  0.84244172  0.24915594  0.08631648     0.04460
N857        N  0.81721339  0.24148008  0.05983619     0.66960
H858        H  0.81714154  0.21116883  0.12903400     0.15860
H859        H  0.91509648  0.30332030  0.10076943     0.15570
N860        N  0.91259361  0.27816294  0.17667259     0.74670
O861        O  0.79690306  0.21454407  0.05593853    -0.38780
O862        O  0.81323109  0.26161541  0.54483373    -0.38720
O863        O  0.91426406  0.26160110  0.20488652    -0.39430
O864        O  0.93160382  0.30578666  0.17690779    -0.39490
C865        C  0.89189022  0.27796179  0.39020865    -0.11780
C866        C  0.86845629  0.27555940  0.41597234     0.05230
C867        C  0.83864109  0.25451772  0.40563394    -0.07060
C868        C  0.83317454  0.23551890  0.37064450    -0.07810
C869        C  0.85667695  0.23706470  0.34555563    -0.02360
C870        C  0.88648331  0.25879835  0.35569848     0.04460
N871        N  0.91165725  0.26069217  0.33332944     0.66960
H872        H  0.91475499  0.29365359  0.39871214     0.15860
H873        H  0.81028425  0.21950164  0.36280860     0.15570
N874        N  0.81381935  0.25236585  0.42990790     0.74670
O875        O  0.93264985  0.28569036  0.31939433    -0.38780
O876        O  0.91584076  0.23905374  0.33563833    -0.38720
O877        O  0.81570954  0.27528523  0.44621079    -0.39430
O878        O  0.78895416  0.22815391  0.43156532    -0.39490
C879        C  0.58135669  0.04938822  0.02840396    -0.11780
C880        C  0.56236076  0.02209009  0.00851248     0.05230
C881        C  0.57517357  0.50693068  0.48832382    -0.07060
C882        C  0.60592778  0.51839231  0.99107259    -0.07810
C883        C  0.62479195  0.04573963  0.01058723    -0.02360
C884        C  0.61241806  0.06194523  0.02839149     0.04460
N885        N  0.63075638  0.09202957  0.04298994     0.66960
H886        H  0.57209504  0.06142475  0.04378338     0.15860
H887        H  0.61555042  0.50668335  0.97560111     0.15570
N888        N  0.55791100  0.48125244  0.46220800     0.74670
O889        O  0.62390432  0.11124517  0.53381464    -0.38780
O890        O  0.65120707  0.09864022  0.06947341    -0.38720
O891        O  0.54106640  0.48168628  0.43386281    -0.39430
O892        O  0.56271290  0.45998469  0.96298552    -0.39490
C893        C  0.91008072  0.38823949  0.01412367    -0.11780
C894        C  0.92144954  0.37192947  0.99467285     0.05230
C895        C  0.95166340  0.38696992  0.48026039    -0.07060
C896        C  0.96907112  0.41802388  0.48377233    -0.07810
C897        C  0.95803167  0.43454269  0.00385614    -0.02360
C898        C  0.92815384  0.41910105  0.02004352     0.04460
N899        N  0.91656705  0.43368416  0.04571923     0.66960
H900        H  0.88734440  0.37651396  0.02701263     0.15860
H901        H  0.99171048  0.42929793  0.47070635     0.15570
N902        N  0.96588296  0.37129337  0.46510982     0.74670
O903        O  0.89001912  0.42742554  0.54120880    -0.38780
O904        O  0.93078099  0.44840483  0.07800366    -0.38720
O905        O  0.95359815  0.35092875  0.43781162    -0.39430
O906        O  0.99247317  0.38027923  0.97513362    -0.39490
C907        C  0.49171666  0.06504087  0.46934971    -0.11780
C908        C  0.97699364  0.03958243  0.49668043     0.05230
C909        C  0.95294310  0.03551898  0.02341800    -0.07060
C910        C  0.94363136  0.05612696  0.02120843    -0.07810
C911        C  0.95899529  0.08212916  0.49531105    -0.02360
C912        C  0.98366156  0.08686086  0.46926298     0.04460
N913        N  0.50163296  0.11408276  0.44450614     0.66960
H914        H  0.51037204  0.06850141  0.44906254     0.15860
H915        H  0.92477413  0.05232552  0.04135488     0.15570
N916        N  0.93937640  0.01211412  0.05563412     0.74670
O917        O  0.51530121  0.11409600  0.91044420    -0.38780
O918        O  0.50721973  0.13874206  0.45952823    -0.38720
O919        O  0.95551474  0.50973305  0.08327859    -0.39430
O920        O  0.91139153  0.49780016  0.56163373    -0.39490
C921        C  0.98804272  0.01848393  0.99885508     0.03620
C922        C  0.51876731  0.02961149  0.00186182    -0.12530
C923        C  0.52955369  0.01029945  0.50826986     0.01120
C924        C  0.50889613  0.47964274  0.51372052    -0.11050
C925        C  0.97831850  0.46763648  0.50656480     0.03610
C926        C  0.96813271  0.48738915  0.99878923    -0.10470
H927        H  0.53427479  0.05343184  0.99933483     0.09210
H928        H  0.51688324  0.46488903  0.52195295     0.06740
H929        H  0.94481072  0.47874758  0.99247532     0.06580
C930        C  0.90237988  0.33903352  0.49491208     0.03620
C931        C  0.89229517  0.32351247  0.95617922    -0.12530
C932        C  0.87601535  0.29224424  0.95671448     0.01120
C933        C  0.86910659  0.27657815  0.49630462    -0.11050
C934        C  0.87767173  0.29180107  0.53553197     0.03610
C935        C  0.89441350  0.32313198  0.53445478    -0.10470
H936        H  0.89787468  0.33571006  0.92560154     0.09210
H937        H  0.85758473  0.25243517  0.49640487     0.06740
H938        H  0.90165376  0.33524580  0.56434895     0.06580
C939        C  0.94817526  0.10334028  0.99632623     0.03620
C940        C  0.94095539  0.11250143  0.95787031    -0.12530
C941        C  0.92677339  0.12907891  0.95951162     0.01120
C942        C  0.91961512  0.13619789  0.99975089    -0.11050
C943        C  0.92599872  0.12657840  0.53813619     0.03610
C944        C  0.94112786  0.11107039  0.53639251    -0.10470
H945        H  0.94476269  0.10531120  0.92691977     0.09210
H946        H  0.90724513  0.14758329  0.00120662     0.06740
H947        H  0.94552571  0.10321462  0.56626911     0.06580
O948        O  0.77619550  0.13925125  0.78216742    -0.84860
O949        O  0.82293419  0.19471265  0.80473907    -0.81900
C950        C  0.84939930  0.21610396  0.80911582     0.98610
O951        O  0.86952156  0.22014727  0.78175013    -0.81940
O952        O  0.88010456  0.17560174  0.80404748    -0.84580
C953        C  0.87364572  0.14918305  0.81120013     1.03130
O954        O  0.85575226  0.12816280  0.78738837    -0.77340
O955        O  0.79960070  0.11774177  0.80610060    -0.77530
C956        C  0.77797636  0.12185639  0.80884140     1.03080
O957        O  0.79351527  0.15506559  0.69304643    -0.84850
O958        O  0.83478952  0.21246292  0.71484958    -0.81920
C959        C  0.85572885  0.21835061  0.68806251     0.98620
O960        O  0.87086936  0.20608673  0.69193306    -0.81940
O961        O  0.88645842  0.16537337  0.71479408    -0.84550
C962        C  0.87156334  0.14335863  0.69072538     1.03100
O963        O  0.84373123  0.12688611  0.69668415    -0.77370
O964        O  0.78623193  0.11192313  0.71519325    -0.77520
C965        C  0.78167258  0.12733218  0.68811072     1.03060
Cr966      Cr  0.80885850  0.17447123  0.74885884     1.93740
Cr967      Cr  0.87374811  0.18973662  0.74821810     1.93210
Cr968      Cr  0.82233920  0.12413578  0.75127869     1.39100
O969        O  0.83504547  0.16269405  0.74963513    -1.22610
C970        C  0.65737757  0.05805189  0.50707072     0.03620
C971        C  0.67437865  0.06319045  0.54419329    -0.12530
C972        C  0.70553885  0.07709242  0.54049337     0.01120
C973        C  0.71925502  0.08294177  0.49928303    -0.11050
C974        C  0.70247243  0.07716670  0.96204047     0.03610
C975        C  0.67153333  0.06476683  0.96598510    -0.10470
H976        H  0.66359577  0.05797892  0.57595009     0.09210
H977        H  0.74333244  0.09362159  0.49622182     0.06740
H978        H  0.65861267  0.06098762  0.93719279     0.06580
C979        C  0.73120764  0.07092305  0.90318030    -0.11780
C980        C  0.71818380  0.08656666  0.91951026     0.05230
C981        C  0.72169980  0.11156684  0.89614474    -0.07060
C982        C  0.74022497  0.12157622  0.85884875    -0.07810
C983        C  0.75490622  0.10708927  0.84391451    -0.02360
C984        C  0.74864376  0.08017794  0.86475531     0.04460
N985        N  0.75845290  0.06135563  0.84658019     0.66960
H986        H  0.72728526  0.05104109  0.92030478     0.15860
H987        H  0.74435922  0.14180237  0.84258303     0.15570
N988        N  0.70763260  0.12766611  0.91012966     0.74670
O989        O  0.76171616  0.04374439  0.87074657    -0.38780
O990        O  0.75889204  0.05851633  0.80611941    -0.38660
O991        O  0.70447095  0.13110200  0.94978646    -0.39430
O992        O  0.70052958  0.14071499  0.88261150    -0.39490
C993        C  0.72167772  0.07077431  0.61357540    -0.11780
C994        C  0.72428810  0.08948025  0.57895552     0.05230
C995        C  0.74561757  0.12023035  0.58049898    -0.07060
C996        C  0.76429265  0.13163335  0.61579639    -0.07810
C997        C  0.76204915  0.11313276  0.65064338    -0.02360
C998        C  0.74055696  0.08215116  0.64910825     0.04460
N999        N  0.73741226  0.06191449  0.68308711     0.66960
H1000       H  0.70541682  0.04708532  0.61246972     0.15860
H1001       H  0.78043236  0.15537575  0.61610251     0.15570
N1002       N  0.74795945  0.14034104  0.54687490     0.74670
O1003       O  0.71236343  0.04591653  0.70204179    -0.38780
O1004       O  0.75733332  0.05540827  0.68748502    -0.38720
O1005       O  0.72563884  0.14232111  0.53767866    -0.39430
O1006       O  0.77239774  0.15623124  0.52638632    -0.39490
C1007       C  0.86853401  0.11722755  0.62266272    -0.11780
C1008       C  0.88653686  0.13705991  0.65455573     0.05230
C1009       C  0.91806260  0.15143066  0.64952845    -0.07060
C1010       C  0.93051274  0.14729786  0.61152631    -0.07810
C1011       C  0.91231286  0.12839241  0.57924103    -0.02360
C1012       C  0.88095650  0.11229549  0.58551163     0.04460
N1013       N  0.86147408  0.09087576  0.55466141     0.66960
H1014       H  0.84445885  0.10549988  0.62646178     0.15860
H1015       H  0.95455676  0.15893012  0.60705235     0.15570
N1016       N  0.93773977  0.16974787  0.68264089     0.74670
O1017       O  0.83539036  0.08597338  0.55011172    -0.38780
O1018       O  0.86893614  0.07444565  0.53543291    -0.38720
O1019       O  0.93415395  0.15949562  0.72080281    -0.39430
O1020       O  0.96150171  0.19382714  0.67246217    -0.39490
C1021       C  0.91847846  0.15610156  0.84851581    -0.11780
C1022       C  0.88732367  0.14279211  0.84773937     0.05230
C1023       C  0.86971959  0.12500573  0.88321025    -0.07060
C1024       C  0.88344123  0.12142545  0.91906851    -0.07810
C1025       C  0.91452827  0.13459020  0.92017001    -0.02360
C1026       C  0.93245157  0.15198118  0.88421178     0.04460
N1027       N  0.96449795  0.16611241  0.88364746     0.66960
H1028       H  0.93195930  0.17003023  0.82130005     0.15860
H1029       H  0.86957364  0.10764411  0.94616752     0.15570
N1030       N  0.83786421  0.11038731  0.88335278     0.74670
O1031       O  0.97883185  0.17177343  0.84810227    -0.38780
O1032       O  0.97885834  0.17530142  0.91807105    -0.38720
O1033       O  0.82356756  0.09025540  0.85638067    -0.39430
O1034       O  0.82405452  0.11273971  0.91548639    -0.39490
C1035       C  0.83862096  0.23129981  0.62273793    -0.11780
C1036       C  0.86178932  0.23912042  0.65158471     0.05230
C1037       C  0.88931607  0.26641641  0.64510419    -0.07060
C1038       C  0.89351164  0.28342033  0.60729348    -0.07810
C1039       C  0.87076272  0.27481673  0.57723167    -0.02360
C1040       C  0.84244171  0.24915596  0.58631651     0.04460
N1041       N  0.81721337  0.24148012  0.55983625     0.66960
H1042       H  0.81714153  0.21116887  0.62903405     0.15860
H1043       H  0.91509648  0.30332027  0.60076939     0.15570
N1044       N  0.91259364  0.27816292  0.67667254     0.74670
O1045       O  0.79690300  0.21454412  0.55593864    -0.38780
O1046       O  0.81323109  0.26161535  0.04483368    -0.38720
O1047       O  0.91426407  0.26160109  0.70488649    -0.39430
O1048       O  0.93160387  0.30578663  0.67690771    -0.39490
C1049       C  0.89189024  0.27796179  0.89020864    -0.11780
C1050       C  0.86845630  0.27555941  0.91597233     0.05230
C1051       C  0.83864111  0.25451773  0.90563393    -0.07060
C1052       C  0.83317455  0.23551891  0.87064449    -0.07810
C1053       C  0.85667696  0.23706470  0.84555562    -0.02360
C1054       C  0.88648332  0.25879835  0.85569847     0.04460
N1055       N  0.91165726  0.26069218  0.83332943     0.66960
H1056       H  0.91475501  0.29365360  0.89871213     0.15860
H1057       H  0.81028426  0.21950165  0.86280859     0.15570
N1058       N  0.81381936  0.25236586  0.92990790     0.74670
O1059       O  0.93264986  0.28569036  0.81939432    -0.38780
O1060       O  0.91584077  0.23905374  0.83563832    -0.38720
O1061       O  0.81570956  0.27528524  0.94621079    -0.39430
O1062       O  0.78895417  0.22815392  0.93156532    -0.39490
C1063       C  0.58135669  0.04938822  0.52840399    -0.11780
C1064       C  0.56236075  0.02209009  0.50851250     0.05230
C1065       C  0.57517356  0.50693066  0.98832379    -0.07060
C1066       C  0.60592779  0.51839233  0.49107261    -0.07810
C1067       C  0.62479195  0.04573965  0.51058724    -0.02360
C1068       C  0.61241805  0.06194524  0.52839151     0.04460
N1069       N  0.63075637  0.09202958  0.54298997     0.66960
H1070       H  0.57209503  0.06142475  0.54378341     0.15860
H1071       H  0.61555044  0.50668337  0.47560113     0.15570
N1072       N  0.55791099  0.48125241  0.96220798     0.74670
O1073       O  0.62390434  0.11124516  0.03381459    -0.38780
O1074       O  0.65120708  0.09864023  0.56947341    -0.38720
O1075       O  0.54106639  0.48168626  0.93386278    -0.39430
O1076       O  0.56271292  0.45998472  0.46298554    -0.39490
C1077       C  0.91008071  0.38823949  0.51412362    -0.11780
C1078       C  0.92144955  0.37192947  0.49467284     0.05230
C1079       C  0.95166338  0.38696992  0.98026035    -0.07060
C1080       C  0.96907110  0.41802388  0.98377231    -0.07810
C1081       C  0.95803167  0.43454269  0.50385612    -0.02360
C1082       C  0.92815383  0.41910105  0.52004347     0.04460
N1083       N  0.91656703  0.43368416  0.54571913     0.66960
H1084       H  0.88734440  0.37651396  0.52701255     0.15860
H1085       H  0.99171046  0.42929794  0.97070630     0.15570
N1086       N  0.96588293  0.37129338  0.96510973     0.74670
O1087       O  0.89001913  0.42742553  0.04120895    -0.38780
O1088       O  0.93078094  0.44840483  0.57800359    -0.38720
O1089       O  0.95359815  0.35092884  0.93781141    -0.39430
O1090       O  0.99247321  0.38027927  0.47513365    -0.39490
C1091       C  0.49171665  0.06504086  0.96934968    -0.11780
C1092       C  0.97699365  0.03958244  0.99668043     0.05230
C1093       C  0.95294308  0.03551896  0.52341799    -0.07060
C1094       C  0.94363135  0.05612695  0.52120842    -0.07810
C1095       C  0.95899530  0.08212917  0.99531105    -0.02360
C1096       C  0.98366157  0.08686086  0.96926298     0.04460
N1097       N  0.50163293  0.11408275  0.94450609     0.66960
H1098       H  0.51037202  0.06850139  0.94906249     0.15860
H1099       H  0.92477412  0.05232550  0.54135486     0.15570
N1100       N  0.93937638  0.01211410  0.55563411     0.74670
O1101       O  0.51530128  0.11409603  0.41044428    -0.38780
O1102       O  0.50721972  0.13874205  0.95952817    -0.38720
O1103       O  0.95551482  0.50973307  0.58327860    -0.39430
O1104       O  0.91139147  0.49780012  0.06163361    -0.39490
C1105       C  0.98804272  0.51848393  0.49885508     0.03620
C1106       C  0.51876731  0.52961152  0.50186189    -0.12530
C1107       C  0.52955370  0.51029947  0.00826986     0.01120
C1108       C  0.50889611  0.97964271  0.01372046    -0.11050
C1109       C  0.97831850  0.96763649  0.00656480     0.03610
C1110       C  0.96813271  0.98738914  0.49878921    -0.10470
H1111       H  0.53427479  0.55343187  0.49933490     0.09210
H1112       H  0.51688322  0.96488900  0.02195290     0.06740
H1113       H  0.94481072  0.97874758  0.49247530     0.06580
C1114       C  0.90237988  0.83903352  0.99491208     0.03620
C1115       C  0.89229514  0.82351245  0.45617921    -0.12530
C1116       C  0.87601532  0.79224422  0.45671448     0.01120
C1117       C  0.86910661  0.77657816  0.99630461    -0.11050
C1118       C  0.87767174  0.79180107  0.03553196     0.03610
C1119       C  0.89441350  0.82313198  0.03445478    -0.10470
H1120       H  0.89787467  0.83571005  0.42560153     0.09210
H1121       H  0.85758475  0.75243517  0.99640486     0.06740
H1122       H  0.90165376  0.83524580  0.06434894     0.06580
C1123       C  0.94817526  0.60334028  0.49632623     0.03620
C1124       C  0.94095538  0.61250143  0.45787030    -0.12530
C1125       C  0.92677339  0.62907890  0.45951161     0.01120
C1126       C  0.91961512  0.63619788  0.49975089    -0.11050
C1127       C  0.92599874  0.62657842  0.03813619     0.03610
C1128       C  0.94112787  0.61107040  0.03639251    -0.10470
H1129       H  0.94476268  0.60531119  0.42691977     0.09210
H1130       H  0.90724513  0.64758329  0.50120662     0.06740
H1131       H  0.94552571  0.60321463  0.06626911     0.06580
O1132       O  0.77619549  0.63925124  0.28216740    -0.84860
O1133       O  0.82293418  0.69471264  0.30473906    -0.81900
C1134       C  0.84939929  0.71610395  0.30911582     0.98610
O1135       O  0.86952155  0.72014726  0.28175014    -0.81940
O1136       O  0.88010455  0.67560174  0.30404748    -0.84580
C1137       C  0.87364572  0.64918304  0.31120013     1.03130
O1138       O  0.85575226  0.62816280  0.28738837    -0.77340
O1139       O  0.79960070  0.61774177  0.30610059    -0.77530
C1140       C  0.77797636  0.62185639  0.30884138     1.03080
O1141       O  0.79351528  0.65506559  0.19304642    -0.84850
O1142       O  0.83478952  0.71246291  0.21484958    -0.81920
C1143       C  0.85572885  0.71835061  0.18806251     0.98620
O1144       O  0.87086936  0.70608673  0.19193306    -0.81940
O1145       O  0.88645842  0.66537337  0.21479409    -0.84550
C1146       C  0.87156334  0.64335863  0.19072538     1.03100
O1147       O  0.84373123  0.62688611  0.19668415    -0.77370
O1148       O  0.78623193  0.61192313  0.21519324    -0.77520
C1149       C  0.78167258  0.62733218  0.18811071     1.03060
Cr1150     Cr  0.80885850  0.67447122  0.24885883     1.93740
Cr1151     Cr  0.87374811  0.68973661  0.24821810     1.93210
Cr1152     Cr  0.82233920  0.62413578  0.25127869     1.39100
O1153       O  0.83504547  0.66269405  0.24963513    -1.22610
C1154       C  0.65737757  0.55805189  0.00707071     0.03620
C1155       C  0.67437864  0.56319045  0.04419328    -0.12530
C1156       C  0.70553885  0.57709240  0.04049336     0.01120
C1157       C  0.71925502  0.58294176  0.99928303    -0.11050
C1158       C  0.70247243  0.57716672  0.46204046     0.03610
C1159       C  0.67153334  0.56476686  0.46598511    -0.10470
H1160       H  0.66359577  0.55797892  0.07595008     0.09210
H1161       H  0.74333244  0.59362157  0.99622182     0.06740
H1162       H  0.65861267  0.56098766  0.43719280     0.06580
C1163       C  0.73120764  0.57092306  0.40318029    -0.11780
C1164       C  0.71818380  0.58656668  0.41951025     0.05230
C1165       C  0.72169980  0.61156685  0.39614472    -0.07060
C1166       C  0.74022497  0.62157623  0.35884873    -0.07810
C1167       C  0.75490621  0.60708927  0.34391449    -0.02360
C1168       C  0.74864375  0.58017794  0.36475530     0.04460
N1169       N  0.75845289  0.56135563  0.34658019     0.66960
H1170       H  0.72728525  0.55104110  0.42030478     0.15860
H1171       H  0.74435922  0.64180238  0.34258300     0.15570
N1172       N  0.70763260  0.62766613  0.41012964     0.74670
O1173       O  0.76171615  0.54374439  0.37074657    -0.38780
O1174       O  0.75889203  0.55851633  0.30611941    -0.38660
O1175       O  0.70447095  0.63110203  0.44978644    -0.39430
O1176       O  0.70052958  0.64071500  0.38261148    -0.39490
C1177       C  0.72167772  0.57077430  0.11357539    -0.11780
C1178       C  0.72428809  0.58948024  0.07895551     0.05230
C1179       C  0.74561757  0.62023034  0.08049897    -0.07060
C1180       C  0.76429265  0.63163334  0.11579638    -0.07810
C1181       C  0.76204915  0.61313275  0.15064337    -0.02360
C1182       C  0.74055696  0.58215115  0.14910824     0.04460
N1183       N  0.73741226  0.56191449  0.18308711     0.66960
H1184       H  0.70541682  0.54708531  0.11246972     0.15860
H1185       H  0.78043236  0.65537575  0.11610250     0.15570
N1186       N  0.74795944  0.64034102  0.04687489     0.74670
O1187       O  0.71236343  0.54591654  0.20204180    -0.38780
O1188       O  0.75733331  0.55540827  0.18748502    -0.38720
O1189       O  0.72563883  0.64232111  0.03767866    -0.39430
O1190       O  0.77239772  0.65623120  0.02638627    -0.39490
C1191       C  0.86853401  0.61722756  0.12266271    -0.11780
C1192       C  0.88653686  0.63705991  0.15455573     0.05230
C1193       C  0.91806261  0.65143066  0.14952845    -0.07060
C1194       C  0.93051274  0.64729787  0.11152632    -0.07810
C1195       C  0.91231287  0.62839242  0.07924103    -0.02360
C1196       C  0.88095651  0.61229551  0.08551162     0.04460
N1197       N  0.86147409  0.59087578  0.05466139     0.66960
H1198       H  0.84445886  0.60549989  0.12646176     0.15860
H1199       H  0.95455677  0.65893012  0.10705236     0.15570
N1200       N  0.93773977  0.66974786  0.18264090     0.74670
O1201       O  0.83539037  0.58597341  0.05011169    -0.38780
O1202       O  0.86893615  0.57444567  0.03543289    -0.38720
O1203       O  0.93415394  0.65949560  0.22080283    -0.39430
O1204       O  0.96150171  0.69382713  0.17246219    -0.39490
C1205       C  0.91847846  0.65610154  0.34851580    -0.11780
C1206       C  0.88732366  0.64279210  0.34773937     0.05230
C1207       C  0.86971959  0.62500574  0.38321026    -0.07060
C1208       C  0.88344123  0.62142545  0.41906852    -0.07810
C1209       C  0.91452827  0.63459019  0.42017001    -0.02360
C1210       C  0.93245157  0.65198116  0.38421177     0.04460
N1211       N  0.96449795  0.66611238  0.38364745     0.66960
H1212       H  0.93195930  0.67003021  0.32130004     0.15860
H1213       H  0.86957363  0.60764411  0.44616754     0.15570
N1214       N  0.83786421  0.61038732  0.38335280     0.74670
O1215       O  0.97883183  0.67177340  0.34810225    -0.38780
O1216       O  0.97885834  0.67530140  0.41807103    -0.38720
O1217       O  0.82356755  0.59025541  0.35638069    -0.39430
O1218       O  0.82405453  0.61273973  0.41548641    -0.39490
C1219       C  0.83862097  0.73129979  0.12273791    -0.11780
C1220       C  0.86178932  0.73912042  0.15158471     0.05230
C1221       C  0.88931606  0.76641642  0.14510420    -0.07060
C1222       C  0.89351163  0.78342034  0.10729349    -0.07810
C1223       C  0.87076273  0.77481673  0.07723167    -0.02360
C1224       C  0.84244172  0.74915595  0.08631649     0.04460
N1225       N  0.81721339  0.74148009  0.05983620     0.66960
H1226       H  0.81714154  0.71116884  0.12903401     0.15860
H1227       H  0.91509648  0.80332030  0.10076942     0.15570
N1228       N  0.91259362  0.77816293  0.17667258     0.74670
O1229       O  0.79690304  0.71454409  0.05593856    -0.38780
O1230       O  0.81323108  0.76161540  0.54483373    -0.38720
O1231       O  0.91426407  0.76160110  0.20488651    -0.39430
O1232       O  0.93160383  0.80578665  0.17690777    -0.39490
C1233       C  0.89189021  0.77796178  0.39020865    -0.11780
C1234       C  0.86845627  0.77555939  0.41597234     0.05230
C1235       C  0.83864108  0.75451771  0.40563394    -0.07060
C1236       C  0.83317453  0.73551889  0.37064449    -0.07810
C1237       C  0.85667695  0.73706469  0.34555562    -0.02360
C1238       C  0.88648330  0.75879835  0.35569848     0.04460
N1239       N  0.91165725  0.76069218  0.33332943     0.66960
H1240       H  0.91475498  0.79365359  0.39871213     0.15860
H1241       H  0.81028424  0.71950163  0.36280860     0.15570
N1242       N  0.81381933  0.75236583  0.42990790     0.74670
O1243       O  0.93264984  0.78569036  0.31939432    -0.38780
O1244       O  0.91584077  0.73905375  0.33563832    -0.38720
O1245       O  0.81570952  0.77528521  0.44621079    -0.39430
O1246       O  0.78895415  0.72815389  0.43156533    -0.39490
C1247       C  0.58135670  0.54938823  0.02840397    -0.11780
C1248       C  0.56236076  0.52209010  0.00851249     0.05230
C1249       C  0.57517356  0.00693065  0.48832380    -0.07060
C1250       C  0.60592778  0.01839229  0.99107259    -0.07810
C1251       C  0.62479195  0.54573965  0.01058723    -0.02360
C1252       C  0.61241806  0.56194525  0.02839150     0.04460
N1253       N  0.63075638  0.59202959  0.04298995     0.66960
H1254       H  0.57209505  0.56142477  0.04378339     0.15860
H1255       H  0.61555043  0.00668333  0.97560111     0.15570
N1256       N  0.55791099  0.98125241  0.46220798     0.74670
O1257       O  0.62390433  0.61124520  0.53381466    -0.38780
O1258       O  0.65120709  0.59864025  0.06947338    -0.38720
O1259       O  0.54106639  0.98168625  0.43386279    -0.39430
O1260       O  0.56271291  0.95998467  0.96298552    -0.39490
C1261       C  0.91008072  0.88823950  0.01412363    -0.11780
C1262       C  0.92144955  0.87192947  0.99467284     0.05230
C1263       C  0.95166338  0.88696991  0.48026036    -0.07060
C1264       C  0.96907110  0.91802387  0.48377230    -0.07810
C1265       C  0.95803167  0.93454269  0.00385612    -0.02360
C1266       C  0.92815384  0.91910106  0.02004348     0.04460
N1267       N  0.91656703  0.93368417  0.04571915     0.66960
H1268       H  0.88734440  0.87651397  0.02701257     0.15860
H1269       H  0.99171045  0.92929792  0.47070631     0.15570
N1270       N  0.96588294  0.87129336  0.46510977     0.74670
O1271       O  0.89001912  0.92742553  0.54120886    -0.38780
O1272       O  0.93078096  0.94840484  0.07800360    -0.38720
O1273       O  0.95359813  0.85092876  0.43781155    -0.39430
O1274       O  0.99247320  0.88027926  0.97513365    -0.39490
C1275       C  0.49171667  0.56504089  0.46934973    -0.11780
C1276       C  0.97699365  0.53958244  0.49668044     0.05230
C1277       C  0.95294307  0.53551896  0.02341797    -0.07060
C1278       C  0.94363134  0.55612695  0.02120840    -0.07810
C1279       C  0.95899530  0.58212917  0.49531105    -0.02360
C1280       C  0.98366157  0.58686086  0.46926297     0.04460
N1281       N  0.50163297  0.61408279  0.44450615     0.66960
H1282       H  0.51037206  0.56850143  0.44906257     0.15860
H1283       H  0.92477410  0.55232550  0.04135482     0.15570
N1284       N  0.93937635  0.51211409  0.05563407     0.74670
O1285       O  0.51530126  0.61409603  0.91044425    -0.38780
O1286       O  0.50721973  0.63874209  0.45952825    -0.38720
O1287       O  0.95551481  0.00973307  0.08327860    -0.39430
O1288       O  0.91139150  0.99780015  0.56163369    -0.39490
C1289       C  0.98804271  0.51848392  0.99885510     0.03620
C1290       C  0.51876730  0.52961151  0.00186185    -0.12530
C1291       C  0.52955371  0.51029948  0.50826990     0.01120
C1292       C  0.50889611  0.97964270  0.51372048    -0.11050
C1293       C  0.97831849  0.96763647  0.50656479     0.03610
C1294       C  0.96813272  0.98738916  0.99878921    -0.10470
H1295       H  0.53427478  0.55343186  0.99933486     0.09210
H1296       H  0.51688322  0.96488900  0.52195291     0.06740
H1297       H  0.94481073  0.97874759  0.99247530     0.06580
C1298       C  0.90237986  0.83903351  0.49491208     0.03620
C1299       C  0.89229517  0.82351247  0.95617921    -0.12530
C1300       C  0.87601535  0.79224424  0.95671448     0.01120
C1301       C  0.86910658  0.77657814  0.49630462    -0.11050
C1302       C  0.87767172  0.79180106  0.53553197     0.03610
C1303       C  0.89441348  0.82313197  0.53445478    -0.10470
H1304       H  0.89787469  0.83571006  0.92560154     0.09210
H1305       H  0.85758471  0.75243516  0.49640487     0.06740
H1306       H  0.90165375  0.83524579  0.56434894     0.06580
C1307       C  0.94817526  0.60334029  0.99632623     0.03620
C1308       C  0.94095540  0.61250145  0.95787030    -0.12530
C1309       C  0.92677341  0.62907893  0.95951161     0.01120
C1310       C  0.91961513  0.63619790  0.99975089    -0.11050
C1311       C  0.92599873  0.62657840  0.53813620     0.03610
C1312       C  0.94112787  0.61107039  0.53639251    -0.10470
H1313       H  0.94476270  0.60531121  0.92691977     0.09210
H1314       H  0.90724515  0.64758331  0.00120662     0.06740
H1315       H  0.94552571  0.60321463  0.56626912     0.06580
O1316       O  0.77619549  0.63925125  0.78216742    -0.84860
O1317       O  0.82293418  0.69471264  0.80473907    -0.81900
C1318       C  0.84939929  0.71610396  0.80911582     0.98610
O1319       O  0.86952155  0.72014727  0.78175013    -0.81940
O1320       O  0.88010456  0.67560175  0.80404748    -0.84580
C1321       C  0.87364573  0.64918305  0.81120013     1.03130
O1322       O  0.85575227  0.62816280  0.78738838    -0.77340
O1323       O  0.79960070  0.61774177  0.80610060    -0.77530
C1324       C  0.77797636  0.62185639  0.80884140     1.03080
O1325       O  0.79351527  0.65506559  0.69304643    -0.84850
O1326       O  0.83478952  0.71246292  0.71484959    -0.81920
C1327       C  0.85572885  0.71835061  0.68806251     0.98620
O1328       O  0.87086935  0.70608673  0.69193305    -0.81940
O1329       O  0.88645842  0.66537338  0.71479408    -0.84550
C1330       C  0.87156334  0.64335863  0.69072538     1.03100
O1331       O  0.84373123  0.62688611  0.69668416    -0.77370
O1332       O  0.78623194  0.61192313  0.71519325    -0.77520
C1333       C  0.78167258  0.62733218  0.68811072     1.03060
Cr1334     Cr  0.80885850  0.67447123  0.74885884     1.93740
Cr1335     Cr  0.87374811  0.68973662  0.74821810     1.93210
Cr1336     Cr  0.82233921  0.62413578  0.75127870     1.39100
O1337       O  0.83504547  0.66269405  0.74963513    -1.22610
C1338       C  0.65737758  0.55805191  0.50707072     0.03620
C1339       C  0.67437866  0.56319047  0.54419328    -0.12530
C1340       C  0.70553887  0.57709242  0.54049336     0.01120
C1341       C  0.71925503  0.58294177  0.49928302    -0.11050
C1342       C  0.70247242  0.57716670  0.96204047     0.03610
C1343       C  0.67153333  0.56476684  0.96598510    -0.10470
H1344       H  0.66359579  0.55797894  0.57595008     0.09210
H1345       H  0.74333245  0.59362159  0.49622181     0.06740
H1346       H  0.65861267  0.56098764  0.93719279     0.06580
C1347       C  0.73120764  0.57092306  0.90318030    -0.11780
C1348       C  0.71818379  0.58656666  0.91951026     0.05230
C1349       C  0.72169979  0.61156684  0.89614473    -0.07060
C1350       C  0.74022497  0.62157622  0.85884874    -0.07810
C1351       C  0.75490622  0.60708927  0.84391451    -0.02360
C1352       C  0.74864376  0.58017794  0.86475531     0.04460
N1353       N  0.75845291  0.56135563  0.84658020     0.66960
H1354       H  0.72728526  0.55104109  0.92030479     0.15860
H1355       H  0.74435921  0.64180237  0.84258301     0.15570
N1356       N  0.70763259  0.62766611  0.91012965     0.74670
O1357       O  0.76171617  0.54374440  0.87074658    -0.38780
O1358       O  0.75889204  0.55851633  0.80611943    -0.38660
O1359       O  0.70447094  0.63110201  0.94978645    -0.39430
O1360       O  0.70052956  0.64071497  0.88261148    -0.39490
C1361       C  0.72167772  0.57077432  0.61357540    -0.11780
C1362       C  0.72428811  0.58948025  0.57895550     0.05230
C1363       C  0.74561761  0.62023036  0.58049896    -0.07060
C1364       C  0.76429268  0.63163334  0.61579637    -0.07810
C1365       C  0.76204916  0.61313276  0.65064338    -0.02360
C1366       C  0.74055695  0.58215116  0.64910825     0.04460
N1367       N  0.73741224  0.56191450  0.68308713     0.66960
H1368       H  0.70541681  0.54708533  0.61246973     0.15860
H1369       H  0.78043241  0.65537576  0.61610249     0.15570
N1370       N  0.74795950  0.64034104  0.54687487     0.74670
O1371       O  0.71236340  0.54591655  0.70204180    -0.38780
O1372       O  0.75733328  0.55540826  0.68748507    -0.38720
O1373       O  0.72563890  0.64232113  0.53767861    -0.39430
O1374       O  0.77239780  0.65623124  0.52638631    -0.39490
C1375       C  0.86853401  0.61722756  0.62266272    -0.11780
C1376       C  0.88653686  0.63705991  0.65455573     0.05230
C1377       C  0.91806261  0.65143066  0.64952845    -0.07060
C1378       C  0.93051274  0.64729786  0.61152632    -0.07810
C1379       C  0.91231286  0.62839241  0.57924103    -0.02360
C1380       C  0.88095650  0.61229550  0.58551163     0.04460
N1381       N  0.86147408  0.59087576  0.55466141     0.66960
H1382       H  0.84445885  0.60549989  0.62646177     0.15860
H1383       H  0.95455677  0.65893012  0.60705235     0.15570
N1384       N  0.93773977  0.66974787  0.68264089     0.74670
O1385       O  0.83539036  0.58597339  0.55011171    -0.38780
O1386       O  0.86893614  0.57444565  0.53543291    -0.38720
O1387       O  0.93415394  0.65949562  0.72080282    -0.39430
O1388       O  0.96150171  0.69382714  0.67246217    -0.39490
C1389       C  0.91847847  0.65610157  0.84851580    -0.11780
C1390       C  0.88732367  0.64279212  0.84773937     0.05230
C1391       C  0.86971960  0.62500575  0.88321025    -0.07060
C1392       C  0.88344125  0.62142546  0.91906852    -0.07810
C1393       C  0.91452828  0.63459021  0.92017001    -0.02360
C1394       C  0.93245158  0.65198119  0.88421177     0.04460
N1395       N  0.96449796  0.66611242  0.88364745     0.66960
H1396       H  0.93195931  0.67003023  0.82130004     0.15860
H1397       H  0.86957365  0.60764412  0.94616753     0.15570
N1398       N  0.83786422  0.61038732  0.88335279     0.74670
O1399       O  0.97883185  0.67177345  0.84810225    -0.38780
O1400       O  0.97885836  0.67530143  0.91807103    -0.38720
O1401       O  0.82356757  0.59025541  0.85638068    -0.39430
O1402       O  0.82405453  0.61273973  0.91548641    -0.39490
C1403       C  0.83862095  0.73129980  0.62273794    -0.11780
C1404       C  0.86178931  0.73912042  0.65158472     0.05230
C1405       C  0.88931606  0.76641641  0.64510418    -0.07060
C1406       C  0.89351162  0.78342033  0.60729347    -0.07810
C1407       C  0.87076271  0.77481672  0.57723167    -0.02360
C1408       C  0.84244170  0.74915596  0.58631652     0.04460
N1409       N  0.81721335  0.74148012  0.55983626     0.66960
H1410       H  0.81714151  0.71116886  0.62903406     0.15860
H1411       H  0.91509648  0.80332027  0.60076938     0.15570
N1412       N  0.91259364  0.77816291  0.67667254     0.74670
O1413       O  0.79690298  0.71454412  0.55593866    -0.38780
O1414       O  0.81323109  0.76161537  0.04483370    -0.38720
O1415       O  0.91426407  0.76160109  0.70488649    -0.39430
O1416       O  0.93160387  0.80578663  0.67690770    -0.39490
C1417       C  0.89189023  0.77796179  0.89020864    -0.11780
C1418       C  0.86845630  0.77555941  0.91597233     0.05230
C1419       C  0.83864110  0.75451773  0.90563394    -0.07060
C1420       C  0.83317455  0.73551891  0.87064449    -0.07810
C1421       C  0.85667696  0.73706470  0.84555562    -0.02360
C1422       C  0.88648331  0.75879835  0.85569847     0.04460
N1423       N  0.91165726  0.76069218  0.83332943     0.66960
H1424       H  0.91475500  0.79365360  0.89871213     0.15860
H1425       H  0.81028426  0.71950165  0.86280860     0.15570
N1426       N  0.81381936  0.75236586  0.92990790     0.74670
O1427       O  0.93264986  0.78569036  0.81939432    -0.38780
O1428       O  0.91584077  0.73905375  0.83563832    -0.38720
O1429       O  0.81570955  0.77528524  0.94621079    -0.39430
O1430       O  0.78895417  0.72815392  0.93156532    -0.39490
C1431       C  0.58135671  0.54938826  0.52840400    -0.11780
C1432       C  0.56236077  0.52209012  0.50851252     0.05230
C1433       C  0.57517356  0.00693064  0.98832378    -0.07060
C1434       C  0.60592778  0.01839231  0.49107260    -0.07810
C1435       C  0.62479196  0.54573968  0.51058725    -0.02360
C1436       C  0.61241807  0.56194527  0.52839152     0.04460
N1437       N  0.63075640  0.59202962  0.54298996     0.66960
H1438       H  0.57209506  0.56142479  0.54378342     0.15860
H1439       H  0.61555043  0.00668335  0.47560112     0.15570
N1440       N  0.55791099  0.98125239  0.96220797     0.74670
O1441       O  0.62390434  0.61124518  0.03381462    -0.38780
O1442       O  0.65120714  0.59864029  0.56947334    -0.38720
O1443       O  0.54106639  0.98168624  0.93386277    -0.39430
O1444       O  0.56271291  0.95998469  0.46298552    -0.39490
C1445       C  0.91008070  0.88823948  0.51412364    -0.11780
C1446       C  0.92144954  0.87192946  0.49467284     0.05230
C1447       C  0.95166339  0.88696992  0.98026038    -0.07060
C1448       C  0.96907111  0.91802388  0.98377232    -0.07810
C1449       C  0.95803166  0.93454268  0.50385612    -0.02360
C1450       C  0.92815383  0.91910105  0.52004348     0.04460
N1451       N  0.91656703  0.93368415  0.54571917     0.66960
H1452       H  0.88734439  0.87651395  0.52701258     0.15860
H1453       H  0.99171047  0.92929793  0.97070633     0.15570
N1454       N  0.96588295  0.87129338  0.96510980     0.74670
O1455       O  0.89001912  0.92742554  0.04120882    -0.38780
O1456       O  0.93078096  0.94840483  0.57800361    -0.38720
O1457       O  0.95359815  0.85092878  0.93781157    -0.39430
O1458       O  0.99247319  0.88027925  0.47513362    -0.39490
C1459       C  0.49171666  0.56504088  0.96934970    -0.11780
C1460       C  0.97699364  0.53958243  0.99668044     0.05230
C1461       C  0.95294310  0.53551898  0.52341800    -0.07060
C1462       C  0.94363136  0.55612696  0.52120844    -0.07810
C1463       C  0.95899529  0.58212917  0.99531104    -0.02360
C1464       C  0.98366158  0.58686087  0.96926300     0.04460
N1465       N  0.50163296  0.61408277  0.94450612     0.66960
H1466       H  0.51037204  0.56850142  0.94906253     0.15860
H1467       H  0.92477414  0.55232551  0.54135488     0.15570
N1468       N  0.93937640  0.51211412  0.55563413     0.74670
O1469       O  0.51530130  0.61409606  0.41044430    -0.38780
O1470       O  0.50721974  0.63874208  0.95952822    -0.38720
O1471       O  0.95551478  0.00973306  0.58327859    -0.39430
O1472       O  0.91139152  0.99780016  0.06163372    -0.39490
loop_ 
_geom_bond_atom_site_label_1 
_geom_bond_atom_site_label_2 
_geom_bond_distance 
_geom_bond_site_symmetry_2 
_ccdc_geom_bond_type 
C1          C172   1.490       .  S
C1          C738   1.404       .  A
C1          C374   1.408   1_545  A
C2          C737   1.404   1_455  A
C2          C187   1.404       .  A
C2            H7   1.082       .  S
C3          C144   1.494       .  S
C3          C186   1.404       .  A
C3          C372   1.403   1_545  A
C4          C371   1.403       .  A
C4          C741   1.407   1_455  A
C4            H8   1.082       .  S
C5          C161   1.497       .  S
C5          C740   1.407       .  A
C5          C190   1.408   1_554  A
C6          C369   1.408       .  A
C6          C189   1.408       .  A
C6            H9   1.082       .  S
C10         C158   1.479       .  S
C10          C15   1.403   1_556  A
C10         C195   1.404       .  A
C11          C12   1.402       .  A
C11         C194   1.404       .  A
C11          H16   1.084       .  S
C12         C130   1.479       .  S
C12         C197   1.402       .  A
C13          C14   1.405   1_556  A
C13         C196   1.402       .  A
C13          H17   1.084       .  S
C14         C119   1.489       .  S
C14          C15   1.405       .  A
C15          H18   1.084       .  S
C19         C175   1.485       .  S
C19          C20   1.408       .  A
C19         C208   1.408       .  A
C20          C21   1.405       .  A
C20          H25   1.084       .  S
C21         C105   1.479       .  S
C21          C22   1.402       .  A
C22         C207   1.398       .  A
C22          H26   1.084       .  S
C23          C91   1.476       .  S
C23          C24   1.398       .  A
C23         C206   1.398   1_554  A
C24         C203   1.408   1_554  A
C24          H27   1.084       .  S
O28         Cr46   2.008       .  S
O28          C36   1.264       .  A
O29         Cr46   1.981       .  S
O29          C30   1.264       .  A
C30         C133   1.491       .  S
C30          O31   1.267       .  A
O31         Cr47   2.011       .  S
O32         Cr47   1.974       .  S
O32          C33   1.260       .  A
C33         C102   1.474       .  S
C33          O34   1.266       .  A
O34         Cr48   2.011       .  S
O35         Cr48   1.977       .  S
O35          C36   1.258       .  A
C36          C63   1.486       .  S
O37         Cr46   1.973       .  S
O37          C45   1.262       .  A
O38         Cr46   2.008       .  S
O38          C39   1.264       .  A
C39         C116   1.472       .  S
C39          O40   1.258       .  A
O40         Cr47   1.976       .  S
O41         Cr47   2.004       .  S
O41          C42   1.264       .  A
C42          C88   1.489       .  S
C42          O43   1.260       .  A
O43         Cr48   1.972       .  S
O44         Cr48   2.016       .  S
O44          C45   1.267       .  A
C45          C77   1.489       .  S
Cr46         O49   1.770       .  S
Cr47         O49   1.772       .  S
Cr48         O49   1.770       .  S
C50         C147   1.480       .  S
C50          C51   1.406       .  A
C50         C239   1.406   1_554  A
C51          C52   1.402       .  A
C51          H56   1.084       .  S
C52          C74   1.482       .  S
C52          C53   1.403   1_554  A
C53         C238   1.399       .  A
C53          H57   1.084       .  S
C54          C60   1.477       .  S
C54          C55   1.401       .  A
C54         C237   1.399       .  A
C55         C234   1.406       .  A
C55          H58   1.084       .  S
C59          C60   1.401       .  A
C59          C64   1.405       .  A
C59          H66   1.083       .  S
C60          C61   1.415       .  A
C61          C62   1.404       .  A
C61          N68   1.441       .  S
C62          C63   1.406       .  A
C62          H67   1.083       .  S
C63          C64   1.418       .  A
C64          N65   1.440       .  S
N65          O69   1.263       .  A
N65          O70   1.263       .  A
N68          O71   1.262       .  A
N68          O72   1.263       .  A
C73          C74   1.402       .  A
C73          C78   1.407       .  A
C73          H80   1.084       .  S
C74          C75   1.409       .  A
C75          C76   1.396       .  A
C75          N82   1.432       .  S
C76          C77   1.405       .  A
C76          H81   1.084       .  S
C77          C78   1.420       .  A
C78          N79   1.432       .  S
N79          O83   1.262       .  A
N79          O84   1.262       .  A
N82          O85   1.262       .  A
N82          O86   1.262       .  A
C87          C88   1.407       .  A
C87          C92   1.401       .  A
C87          H94   1.083       .  S
C88          C89   1.420       .  A
C89          C90   1.406       .  A
C89          N96   1.436       .  S
C90          C91   1.400       .  A
C90          H95   1.083       .  S
C91          C92   1.413       .  A
C92          N93   1.442       .  S
N93          O97   1.263       .  A
N93          O98   1.263       .  A
N96          O99   1.263       .  A
N96         O100   1.263       .  A
C101        C102   1.404       .  A
C101        C106   1.410       .  A
C101        H108   1.084       .  S
C102        C103   1.407       .  A
C103        C104   1.395       .  A
C103        N110   1.430       .  S
C104        C105   1.402       .  A
C104        H109   1.085       .  S
C105        C106   1.417       .  A
C106        N107   1.441       .  S
N107        O111   1.263       .  A
N107        O112   1.262       .  A
N110        O113   1.261       .  A
N110        O114   1.263       .  A
C115        C116   1.402       .  A
C115        C120   1.402       .  A
C115        H122   1.085       .  S
C116        C117   1.419       .  A
C117        C118   1.407       .  A
C117        N124   1.447       .  S
C118        C119   1.406       .  A
C118        H123   1.084       .  S
C119        C120   1.415       .  A
C120        N121   1.439       .  S
N121        O125   1.262       .  A
N121        O310   1.262       .  A
N124        O127   1.261       .  A
N124        O128   1.263       .  A
O126        N305   1.262       .  A
C129        C130   1.400       .  A
C129        C134   1.401       .  A
C129        H136   1.084       .  S
C130        C131   1.413       .  A
C131        C132   1.406       .  A
C131        N138   1.441       .  S
C132        C133   1.408       .  A
C132        H137   1.083       .  S
C133        C134   1.419       .  A
C134        N135   1.434       .  S
N135        O139   1.262       .  A
N135        O140   1.262       .  A
N138        O141   1.263       .  A
N138        O142   1.263       .  A
C143        C144   1.406       .  A
C143        C148   1.403       .  A
C143        H150   1.082       .  S
C144        C697   1.419   1_554  A
C145        C696   1.419       .  A
C145        C330   1.402       .  A
C145        N152   1.437       .  S
C146        C329   1.402       .  A
C146        C515   1.402   1_556  A
C146        H151   1.084       .  S
C147        C148   1.417       .  A
C147        C514   1.402   1_554  A
C148        N149   1.439       .  S
N149        O154   1.261       .  A
N149        O337   1.263       .  A
N152        O155   1.263       .  A
N152        O340   1.263       .  A
O153        N333   1.263       .  A
O156        N336   1.263       .  A
C157        C158   1.403   1_554  A
C157        C162   1.404       .  A
C157        H164   1.084       .  S
C158        C343   1.414       .  A
C159        C160   1.401       .  A
C159        C342   1.414       .  A
C159        N166   1.440       .  S
C160        C345   1.408       .  A
C160        H165   1.082       .  S
C161        C162   1.417       .  A
C161        C344   1.408   1_554  A
C162        N163   1.433       .  S
N163        O168   1.262       .  A
N163        O351   1.263       .  A
N166        O169   1.261       .  A
N166        O354   1.263       .  A
O167        N347   1.263       .  A
O170        N350   1.263       .  A
C171        C908   1.408       .  A
C171        C912   1.408       .  A
C171        H178   1.083   1_655  S
C172        C907   1.408       .  A
C172        C357   1.413       .  A
C173        C174   1.397       .  A
C173        C356   1.413   1_554  A
C173        N180   1.433       .  S
C174        C359   1.404   1_554  A
C174        H179   1.084       .  S
C175        C176   1.416       .  A
C175        C358   1.404       .  A
C176        C907   1.408       .  A
C176        N913   1.440       .  S
N177        C912   1.440   1_455  S
N177        O182   1.263       .  A
N177        O365   1.263       .  A
N180        O551   1.262       .  A
N180        O736   1.263   1_545  A
O181        N361   1.263       .  A
O183        N548   1.262       .  A
O184        N732   1.263       .  A
C185        C356   1.490       .  S
C185        C922   1.404   1_556  A
C185        C558   1.408   1_545  A
C186        C921   1.404   1_454  A
C186        H191   1.082   1_554  S
C187        C328   1.494       .  S
C187        C556   1.403   1_545  A
C188        C555   1.403       .  A
C188        C925   1.407   1_455  A
C188        H192   1.082       .  S
C189        C345   1.497       .  S
C189        C924   1.407       .  A
C190        C553   1.408       .  A
C190        H193   1.082       .  S
C194        C342   1.479       .  S
C194        C199   1.403       .  A
C195        C196   1.402       .  A
C195        H200   1.084       .  S
C196        C314   1.479       .  S
C197        C198   1.405       .  A
C197        H201   1.084       .  S
C198        C303   1.489       .  S
C198        C199   1.405       .  A
C199        H202   1.084       .  S
C203        C359   1.485       .  S
C203        C204   1.408       .  A
C204        C205   1.405       .  A
C204        H209   1.084       .  S
C205        C289   1.479       .  S
C205        C206   1.402       .  A
C206        H210   1.084   1_556  S
C207        C275   1.476       .  S
C207        C208   1.398       .  A
C208        H211   1.084       .  S
O212       Cr230   2.008       .  S
O212        C220   1.264       .  A
O213       Cr230   1.981       .  S
O213        C214   1.264       .  A
C214        C317   1.491       .  S
C214        O215   1.267       .  A
O215       Cr231   2.011       .  S
O216       Cr231   1.974       .  S
O216        C217   1.260       .  A
C217        C286   1.474       .  S
C217        O218   1.266       .  A
O218       Cr232   2.011       .  S
O219       Cr232   1.977       .  S
O219        C220   1.258       .  A
C220        C247   1.486       .  S
O221       Cr230   1.973       .  S
O221        C229   1.262       .  A
O222       Cr230   2.008       .  S
O222        C223   1.264       .  A
C223        C300   1.472       .  S
C223        O224   1.258       .  A
O224       Cr231   1.976       .  S
O225       Cr231   2.004       .  S
O225        C226   1.264       .  A
C226        C272   1.489       .  S
C226        O227   1.260       .  A
O227       Cr232   1.972       .  S
O228       Cr232   2.016       .  S
O228        C229   1.267       .  A
C229        C261   1.489       .  S
Cr230       O233   1.770       .  S
Cr231       O233   1.772       .  S
Cr232       O233   1.770       .  S
C234        C331   1.480       .  S
C234        C235   1.406       .  A
C235        C236   1.402       .  A
C235        H240   1.084       .  S
C236        C258   1.482       .  S
C236        C237   1.403       .  A
C237        H241   1.084       .  S
C238        C244   1.477       .  S
C238        C239   1.401       .  A
C239        H242   1.084       .  S
C243        C244   1.401       .  A
C243        C248   1.405       .  A
C243        H250   1.083       .  S
C244        C245   1.415       .  A
C245        C246   1.404       .  A
C245        N252   1.441       .  S
C246        C247   1.406       .  A
C246        H251   1.083       .  S
C247        C248   1.418       .  A
C248        N249   1.440       .  S
N249        O253   1.263       .  A
N249        O254   1.263       .  A
N252        O255   1.262       .  A
N252        O256   1.263       .  A
C257        C258   1.402       .  A
C257        C262   1.407       .  A
C257        H264   1.084       .  S
C258        C259   1.409       .  A
C259        C260   1.396       .  A
C259        N266   1.432       .  S
C260        C261   1.405       .  A
C260        H265   1.084       .  S
C261        C262   1.420       .  A
C262        N263   1.432       .  S
N263        O267   1.262       .  A
N263        O268   1.262       .  A
N266        O269   1.262       .  A
N266        O270   1.262       .  A
C271        C272   1.407       .  A
C271        C276   1.401       .  A
C271        H278   1.083       .  S
C272        C273   1.420       .  A
C273        C274   1.406       .  A
C273        N280   1.436       .  S
C274        C275   1.400       .  A
C274        H279   1.083       .  S
C275        C276   1.413       .  A
C276        N277   1.442       .  S
N277        O281   1.263       .  A
N277        O282   1.263       .  A
N280        O283   1.263       .  A
N280        O284   1.263       .  A
C285        C286   1.404       .  A
C285        C290   1.410       .  A
C285        H292   1.084       .  S
C286        C287   1.407       .  A
C287        C288   1.395       .  A
C287        N294   1.430       .  S
C288        C289   1.402       .  A
C288        H293   1.085       .  S
C289        C290   1.417       .  A
C290        N291   1.441       .  S
N291        O295   1.263       .  A
N291        O296   1.262       .  A
N294        O297   1.261       .  A
N294        O298   1.263       .  A
C299        C300   1.402       .  A
C299        C304   1.402       .  A
C299        H306   1.085       .  S
C300        C301   1.419       .  A
C301        C302   1.407       .  A
C301        N308   1.447       .  S
C302        C303   1.406       .  A
C302        H307   1.084       .  S
C303        C304   1.415       .  A
C304        N305   1.439       .  S
N305        O309   1.262       .  A
N308        O311   1.261       .  A
N308        O312   1.263       .  A
C313        C314   1.400       .  A
C313        C318   1.401       .  A
C313        H320   1.084       .  S
C314        C315   1.413       .  A
C315        C316   1.406       .  A
C315        N322   1.441       .  S
C316        C317   1.408       .  A
C316        H321   1.083       .  S
C317        C318   1.419       .  A
C318        N319   1.434       .  S
N319        O323   1.262       .  A
N319        O324   1.262       .  A
N322        O325   1.263       .  A
N322        O326   1.263       .  A
C327        C328   1.406       .  A
C327        C332   1.403       .  A
C327        H334   1.082       .  S
C328        C513   1.419       .  A
C329        C512   1.419   1_556  A
C329        N336   1.437       .  S
C330        C699   1.402       .  A
C330        H335   1.084       .  S
C331        C698   1.402       .  A
C331        C332   1.417       .  A
C332        N333   1.439       .  S
N333        O338   1.261       .  A
N336        O339   1.263       .  A
C341        C342   1.403       .  A
C341        C346   1.404       .  A
C341        H348   1.084       .  S
C343        C344   1.401       .  A
C343        N350   1.440       .  S
C344        H349   1.082       .  S
C345        C346   1.417       .  A
C346        N347   1.433       .  S
N347        O352   1.262       .  A
N350        O353   1.261       .  A
C355       C1092   1.408       .  A
C355       C1096   1.408       .  A
C355        H362   1.083   1_655  S
C356       C1091   1.408       .  A
C357        C358   1.397       .  A
C357        N364   1.433       .  S
C358        H363   1.084       .  S
C359        C360   1.416       .  A
C360       C1091   1.408       .  A
C360       N1097   1.440       .  S
N361       C1096   1.440   1_455  S
N361        O366   1.263       .  A
N364        O735   1.262       .  A
N364        O552   1.263   1_545  A
O367        N732   1.262       .  A
O368        N548   1.263       .  A
C369        C540   1.490       .  S
C369       C1106   1.404       .  A
C370       C1105   1.404   1_455  A
C370        C555   1.404       .  A
C370        H375   1.082       .  S
C371        C512   1.494       .  S
C371        C554   1.404       .  A
C372       C1109   1.407   1_455  A
C372        H376   1.082       .  S
C373        C529   1.497       .  S
C373       C1108   1.407       .  A
C373        C558   1.408   1_554  A
C374        C557   1.408       .  A
C374        H377   1.082       .  S
C378        C526   1.479       .  S
C378        C563   1.404       .  A
C378        C383   1.403   1_556  A
C379        C562   1.404       .  A
C379        C380   1.402       .  A
C379        H384   1.084       .  S
C380        C498   1.479       .  S
C380        C565   1.402       .  A
C381        C564   1.402       .  A
C381        C382   1.405   1_556  A
C381        H385   1.084       .  S
C382        C487   1.489       .  S
C382        C383   1.405       .  A
C383        H386   1.084       .  S
C387        C543   1.485       .  S
C387        C388   1.408       .  A
C387        C576   1.408       .  A
C388        C389   1.405       .  A
C388        H393   1.084       .  S
C389        C473   1.479       .  S
C389        C390   1.402       .  A
C390        C575   1.398       .  A
C390        H394   1.084       .  S
C391        C459   1.476       .  S
C391        C574   1.398   1_554  A
C391        C392   1.398       .  A
C392        C571   1.408   1_554  A
C392        H395   1.084       .  S
O396       Cr414   2.008       .  S
O396        C404   1.264       .  A
O397       Cr414   1.981       .  S
O397        C398   1.264       .  A
C398        C501   1.491       .  S
C398        O399   1.267       .  A
O399       Cr415   2.011       .  S
O400       Cr415   1.974       .  S
O400        C401   1.260       .  A
C401        C470   1.474       .  S
C401        O402   1.266       .  A
O402       Cr416   2.011       .  S
O403       Cr416   1.977       .  S
O403        C404   1.258       .  A
C404        C431   1.486       .  S
O405       Cr414   1.973       .  S
O405        C413   1.262       .  A
O406       Cr414   2.008       .  S
O406        C407   1.264       .  A
C407        C484   1.472       .  S
C407        O408   1.258       .  A
O408       Cr415   1.976       .  S
O409       Cr415   2.004       .  S
O409        C410   1.264       .  A
C410        C456   1.489       .  S
C410        O411   1.260       .  A
O411       Cr416   1.972       .  S
O412       Cr416   2.016       .  S
O412        C413   1.267       .  A
C413        C445   1.489       .  S
Cr414       O417   1.770       .  S
Cr415       O417   1.772       .  S
Cr416       O417   1.770       .  S
C418        C515   1.480       .  S
C418        C419   1.406       .  A
C418        C607   1.406   1_554  A
C419        C420   1.402       .  A
C419        H424   1.084       .  S
C420        C442   1.482       .  S
C420        C421   1.403   1_554  A
C421        C606   1.399       .  A
C421        H425   1.084       .  S
C422        C428   1.477       .  S
C422        C605   1.399       .  A
C422        C423   1.401       .  A
C423        C602   1.406       .  A
C423        H426   1.084       .  S
C427        C428   1.401       .  A
C427        C432   1.405       .  A
C427        H434   1.083       .  S
C428        C429   1.415       .  A
C429        C430   1.404       .  A
C429        N436   1.441       .  S
C430        C431   1.406       .  A
C430        H435   1.083       .  S
C431        C432   1.418       .  A
C432        N433   1.440       .  S
N433        O437   1.263       .  A
N433        O438   1.263       .  A
N436        O439   1.262       .  A
N436        O440   1.263       .  A
C441        C442   1.402       .  A
C441        C446   1.407       .  A
C441        H448   1.084       .  S
C442        C443   1.409       .  A
C443        C444   1.396       .  A
C443        N450   1.432       .  S
C444        C445   1.405       .  A
C444        H449   1.084       .  S
C445        C446   1.420       .  A
C446        N447   1.432       .  S
N447        O451   1.262       .  A
N447        O452   1.262       .  A
N450        O453   1.262       .  A
N450        O454   1.262       .  A
C455        C456   1.407       .  A
C455        C460   1.401       .  A
C455        H462   1.083       .  S
C456        C457   1.420       .  A
C457        C458   1.406       .  A
C457        N464   1.436       .  S
C458        C459   1.400       .  A
C458        H463   1.083       .  S
C459        C460   1.413       .  A
C460        N461   1.442       .  S
N461        O465   1.263       .  A
N461        O466   1.263       .  A
N464        O467   1.263       .  A
N464        O468   1.263       .  A
C469        C470   1.404       .  A
C469        C474   1.410       .  A
C469        H476   1.084       .  S
C470        C471   1.407       .  A
C471        C472   1.395       .  A
C471        N478   1.430       .  S
C472        C473   1.402       .  A
C472        H477   1.085       .  S
C473        C474   1.417       .  A
C474        N475   1.441       .  S
N475        O479   1.263       .  A
N475        O480   1.262       .  A
N478        O481   1.261       .  A
N478        O482   1.263       .  A
C483        C484   1.402       .  A
C483        C488   1.402       .  A
C483        H490   1.085       .  S
C484        C485   1.419       .  A
C485        C486   1.407       .  A
C485        N492   1.447       .  S
C486        C487   1.406       .  A
C486        H491   1.084       .  S
C487        C488   1.415       .  A
C488        N489   1.439       .  S
N489        O493   1.262       .  A
N489        O678   1.262       .  A
N492        O495   1.261       .  A
N492        O496   1.263       .  A
O494        N673   1.262       .  A
C497        C498   1.400       .  A
C497        C502   1.401       .  A
C497        H504   1.084       .  S
C498        C499   1.413       .  A
C499        C500   1.406       .  A
C499        N506   1.441       .  S
C500        C501   1.408       .  A
C500        H505   1.083       .  S
C501        C502   1.419       .  A
C502        N503   1.434       .  S
N503        O507   1.262       .  A
N503        O508   1.262       .  A
N506        O509   1.263       .  A
N506        O510   1.263       .  A
C511        C512   1.406       .  A
C511        C516   1.403       .  A
C511        H518   1.082       .  S
C513        C698   1.402       .  A
C513        N520   1.437   1_545  S
C514        C697   1.402       .  A
C514        H519   1.084       .  S
C515        C516   1.417       .  A
C516        N517   1.439       .  S
N517        O705   1.263       .  A
N517        O522   1.261       .  A
N520        O523   1.263       .  A
N520        O708   1.263       .  A
O521        N701   1.263       .  A
O524        N704   1.263       .  A
C525        C526   1.403   1_554  A
C525        C530   1.404       .  A
C525        H532   1.084       .  S
C526        C711   1.414       .  A
C527        C710   1.414       .  A
C527        C528   1.401       .  A
C527        N534   1.440       .  S
C528        C713   1.408       .  A
C528        H533   1.082       .  S
C529        C712   1.408   1_554  A
C529        C530   1.417       .  A
C530        N531   1.433       .  S
N531        O719   1.263       .  A
N531        O536   1.262       .  A
N534        O537   1.261       .  A
N534        O722   1.263       .  A
O535        N715   1.263       .  A
O538        N718   1.263       .  A
C539       C1276   1.408       .  A
C539       C1280   1.408       .  A
C539        H546   1.083   1_655  S
C540       C1275   1.408       .  A
C540        C725   1.413       .  A
C541        C724   1.413   1_554  A
C541        C542   1.397       .  A
C541        N548   1.433       .  S
C542        C727   1.404   1_554  A
C542        H547   1.084       .  S
C543        C726   1.404       .  A
C543        C544   1.416       .  A
C544       C1275   1.408       .  A
C544       N1281   1.440       .  S
N545       C1280   1.440   1_455  S
N545        O733   1.263       .  A
N545        O550   1.263       .  A
O549        N729   1.263       .  A
C553        C724   1.490       .  S
C553       C1290   1.404   1_556  A
C554       C1289   1.404   1_454  A
C554        H559   1.082   1_554  S
C555        C696   1.494       .  S
C556       C1293   1.407   1_455  A
C556        H560   1.082       .  S
C557        C713   1.497       .  S
C557       C1292   1.407       .  A
C558        H561   1.082       .  S
C562        C710   1.479       .  S
C562        C567   1.403       .  A
C563        C564   1.402       .  A
C563        H568   1.084       .  S
C564        C682   1.479       .  S
C565        C566   1.405       .  A
C565        H569   1.084       .  S
C566        C671   1.489       .  S
C566        C567   1.405       .  A
C567        H570   1.084       .  S
C571        C727   1.485       .  S
C571        C572   1.408       .  A
C572        C573   1.405       .  A
C572        H577   1.084       .  S
C573        C657   1.479       .  S
C573        C574   1.402       .  A
C574        H578   1.084   1_556  S
C575        C643   1.476       .  S
C575        C576   1.398       .  A
C576        H579   1.084       .  S
O580       Cr598   2.008       .  S
O580        C588   1.264       .  A
O581       Cr598   1.981       .  S
O581        C582   1.264       .  A
C582        C685   1.491       .  S
C582        O583   1.267       .  A
O583       Cr599   2.011       .  S
O584       Cr599   1.974       .  S
O584        C585   1.260       .  A
C585        C654   1.474       .  S
C585        O586   1.266       .  A
O586       Cr600   2.011       .  S
O587       Cr600   1.977       .  S
O587        C588   1.258       .  A
C588        C615   1.486       .  S
O589       Cr598   1.973       .  S
O589        C597   1.262       .  A
O590       Cr598   2.008       .  S
O590        C591   1.264       .  A
C591        C668   1.472       .  S
C591        O592   1.258       .  A
O592       Cr599   1.976       .  S
O593       Cr599   2.004       .  S
O593        C594   1.264       .  A
C594        C640   1.489       .  S
C594        O595   1.260       .  A
O595       Cr600   1.972       .  S
O596       Cr600   2.016       .  S
O596        C597   1.267       .  A
C597        C629   1.489       .  S
Cr598       O601   1.770       .  S
Cr599       O601   1.772       .  S
Cr600       O601   1.770       .  S
C602        C699   1.480       .  S
C602        C603   1.406       .  A
C603        C604   1.402       .  A
C603        H608   1.084       .  S
C604        C626   1.482       .  S
C604        C605   1.403       .  A
C605        H609   1.084       .  S
C606        C612   1.477       .  S
C606        C607   1.401       .  A
C607        H610   1.084       .  S
C611        C612   1.401       .  A
C611        C616   1.405       .  A
C611        H618   1.083       .  S
C612        C613   1.415       .  A
C613        C614   1.404       .  A
C613        N620   1.441       .  S
C614        C615   1.406       .  A
C614        H619   1.083       .  S
C615        C616   1.418       .  A
C616        N617   1.440       .  S
N617        O621   1.263       .  A
N617        O622   1.263       .  A
N620        O623   1.262       .  A
N620        O624   1.263       .  A
C625        C626   1.402       .  A
C625        C630   1.407       .  A
C625        H632   1.084       .  S
C626        C627   1.409       .  A
C627        C628   1.396       .  A
C627        N634   1.432       .  S
C628        C629   1.405       .  A
C628        H633   1.084       .  S
C629        C630   1.420       .  A
C630        N631   1.432       .  S
N631        O635   1.262       .  A
N631        O636   1.262       .  A
N634        O637   1.262       .  A
N634        O638   1.262       .  A
C639        C640   1.407       .  A
C639        C644   1.401       .  A
C639        H646   1.083       .  S
C640        C641   1.420       .  A
C641        C642   1.406       .  A
C641        N648   1.436       .  S
C642        C643   1.400       .  A
C642        H647   1.083       .  S
C643        C644   1.413       .  A
C644        N645   1.442       .  S
N645        O649   1.263       .  A
N645        O650   1.263       .  A
N648        O651   1.263       .  A
N648        O652   1.263       .  A
C653        C654   1.404       .  A
C653        C658   1.410       .  A
C653        H660   1.084       .  S
C654        C655   1.407       .  A
C655        C656   1.395       .  A
C655        N662   1.430       .  S
C656        C657   1.402       .  A
C656        H661   1.085       .  S
C657        C658   1.417       .  A
C658        N659   1.441       .  S
N659        O663   1.263       .  A
N659        O664   1.262       .  A
N662        O665   1.261       .  A
N662        O666   1.263       .  A
C667        C668   1.402       .  A
C667        C672   1.402       .  A
C667        H674   1.085       .  S
C668        C669   1.419       .  A
C669        C670   1.407       .  A
C669        N676   1.447       .  S
C670        C671   1.406       .  A
C670        H675   1.084       .  S
C671        C672   1.415       .  A
C672        N673   1.439       .  S
N673        O677   1.262       .  A
N676        O679   1.261       .  A
N676        O680   1.263       .  A
C681        C682   1.400       .  A
C681        C686   1.401       .  A
C681        H688   1.084       .  S
C682        C683   1.413       .  A
C683        C684   1.406       .  A
C683        N690   1.441       .  S
C684        C685   1.408       .  A
C684        H689   1.083       .  S
C685        C686   1.419       .  A
C686        N687   1.434       .  S
N687        O691   1.262       .  A
N687        O692   1.262       .  A
N690        O693   1.263       .  A
N690        O694   1.263       .  A
C695        C696   1.406       .  A
C695        C700   1.403       .  A
C695        H702   1.082       .  S
C697        N704   1.437   1_545  S
C698        H703   1.084       .  S
C699        C700   1.417       .  A
C700        N701   1.439       .  S
N701        O706   1.261       .  A
N704        O707   1.263       .  A
C709        C710   1.403       .  A
C709        C714   1.404       .  A
C709        H716   1.084       .  S
C711        C712   1.401       .  A
C711        N718   1.440       .  S
C712        H717   1.082       .  S
C713        C714   1.417       .  A
C714        N715   1.433       .  S
N715        O720   1.262       .  A
N718        O721   1.261       .  A
C723       C1460   1.408       .  A
C723       C1464   1.408       .  A
C723        H730   1.083   1_655  S
C724       C1459   1.408       .  A
C725        C726   1.397       .  A
C725        N732   1.433       .  S
C726        H731   1.084       .  S
C727        C728   1.416       .  A
C728       C1459   1.408       .  A
C728       N1465   1.440       .  S
N729       C1464   1.440   1_455  S
N729        O734   1.263       .  A
C737        C908   1.490       .  S
C737       C1110   1.408   1_545  A
C738        C923   1.404       .  A
C738        H743   1.082       .  S
C739        C880   1.494       .  S
C739        C922   1.404       .  A
C739       C1108   1.403   1_545  A
C740       C1107   1.403       .  A
C740        H744   1.082       .  S
C741        C897   1.497       .  S
C741        C926   1.408   1_554  A
C742       C1105   1.408       .  A
C742        C925   1.408       .  A
C742        H745   1.082       .  S
C746        C894   1.479       .  S
C746        C931   1.404       .  A
C746        C751   1.403   1_556  A
C747        C930   1.404       .  A
C747        C748   1.402       .  A
C747        H752   1.084       .  S
C748        C866   1.479       .  S
C748        C933   1.402       .  A
C749        C932   1.402       .  A
C749        C750   1.405   1_556  A
C749        H753   1.084       .  S
C750        C855   1.489       .  S
C750        C751   1.405       .  A
C751        H754   1.084       .  S
C755        C911   1.485       .  S
C755        C756   1.408       .  A
C755        C944   1.408       .  A
C756        C757   1.405       .  A
C756        H761   1.084       .  S
C757        C841   1.479       .  S
C757        C758   1.402       .  A
C758        C943   1.398       .  A
C758        H762   1.084       .  S
C759        C827   1.476       .  S
C759        C942   1.398   1_554  A
C759        C760   1.398       .  A
C760        C939   1.408   1_554  A
C760        H763   1.084       .  S
O764       Cr782   2.008       .  S
O764        C772   1.264       .  A
O765       Cr782   1.981       .  S
O765        C766   1.264       .  A
C766        C869   1.491       .  S
C766        O767   1.267       .  A
O767       Cr783   2.011       .  S
O768       Cr783   1.974       .  S
O768        C769   1.260       .  A
C769        C838   1.474       .  S
C769        O770   1.266       .  A
O770       Cr784   2.011       .  S
O771       Cr784   1.977       .  S
O771        C772   1.258       .  A
C772        C799   1.486       .  S
O773       Cr782   1.973       .  S
O773        C781   1.262       .  A
O774       Cr782   2.008       .  S
O774        C775   1.264       .  A
C775        C852   1.472       .  S
C775        O776   1.258       .  A
O776       Cr783   1.976       .  S
O777       Cr783   2.004       .  S
O777        C778   1.264       .  A
C778        C824   1.489       .  S
C778        O779   1.260       .  A
O779       Cr784   1.972       .  S
O780       Cr784   2.016       .  S
O780        C781   1.267       .  A
C781        C813   1.489       .  S
Cr782       O785   1.770       .  S
Cr783       O785   1.772       .  S
Cr784       O785   1.770       .  S
C786        C883   1.480       .  S
C786        C787   1.406       .  A
C786        C975   1.406   1_554  A
C787        C788   1.402       .  A
C787        H792   1.084       .  S
C788        C810   1.482       .  S
C788        C789   1.403   1_554  A
C789        C974   1.399       .  A
C789        H793   1.084       .  S
C790        C796   1.477       .  S
C790        C973   1.399       .  A
C790        C791   1.401       .  A
C791        C970   1.406       .  A
C791        H794   1.084       .  S
C795        C796   1.401       .  A
C795        C800   1.405       .  A
C795        H802   1.083       .  S
C796        C797   1.415       .  A
C797        C798   1.404       .  A
C797        N804   1.441       .  S
C798        C799   1.406       .  A
C798        H803   1.083       .  S
C799        C800   1.418       .  A
C800        N801   1.440       .  S
N801        O805   1.263       .  A
N801        O806   1.263       .  A
N804        O807   1.262       .  A
N804        O808   1.263       .  A
C809        C810   1.402       .  A
C809        C814   1.407       .  A
C809        H816   1.084       .  S
C810        C811   1.409       .  A
C811        C812   1.396       .  A
C811        N818   1.432       .  S
C812        C813   1.405       .  A
C812        H817   1.084       .  S
C813        C814   1.420       .  A
C814        N815   1.432       .  S
N815        O819   1.262       .  A
N815        O820   1.262       .  A
N818        O821   1.262       .  A
N818        O822   1.262       .  A
C823        C824   1.407       .  A
C823        C828   1.401       .  A
C823        H830   1.083       .  S
C824        C825   1.420       .  A
C825        C826   1.406       .  A
C825        N832   1.436       .  S
C826        C827   1.400       .  A
C826        H831   1.083       .  S
C827        C828   1.413       .  A
C828        N829   1.442       .  S
N829        O833   1.263       .  A
N829        O834   1.263       .  A
N832        O835   1.263       .  A
N832        O836   1.263       .  A
C837        C838   1.404       .  A
C837        C842   1.410       .  A
C837        H844   1.084       .  S
C838        C839   1.407       .  A
C839        C840   1.395       .  A
C839        N846   1.430       .  S
C840        C841   1.402       .  A
C840        H845   1.085       .  S
C841        C842   1.417       .  A
C842        N843   1.441       .  S
N843        O847   1.263       .  A
N843        O848   1.262       .  A
N846        O849   1.261       .  A
N846        O850   1.263       .  A
C851        C852   1.402       .  A
C851        C856   1.402       .  A
C851        H858   1.085       .  S
C852        C853   1.419       .  A
C853        C854   1.407       .  A
C853        N860   1.447       .  S
C854        C855   1.406       .  A
C854        H859   1.084       .  S
C855        C856   1.415       .  A
C856        N857   1.439       .  S
N857        O861   1.262       .  A
N857       O1046   1.262       .  A
N860        O863   1.261       .  A
N860        O864   1.263       .  A
O862       N1041   1.262       .  A
C865        C866   1.400       .  A
C865        C870   1.401       .  A
C865        H872   1.084       .  S
C866        C867   1.413       .  A
C867        C868   1.406       .  A
C867        N874   1.441       .  S
C868        C869   1.408       .  A
C868        H873   1.083       .  S
C869        C870   1.419       .  A
C870        N871   1.434       .  S
N871        O875   1.262       .  A
N871        O876   1.262       .  A
N874        O877   1.263       .  A
N874        O878   1.263       .  A
C879        C880   1.406       .  A
C879        C884   1.403       .  A
C879        H886   1.082       .  S
C880       C1433   1.419   1_554  A
C881       C1432   1.419       .  A
C881       C1066   1.402       .  A
C881        N888   1.437       .  S
C882       C1065   1.402       .  A
C882       C1251   1.402   1_556  A
C882        H887   1.084       .  S
C883       C1250   1.402   1_554  A
C883        C884   1.417       .  A
C884        N885   1.439       .  S
N885       O1073   1.263       .  A
N885        O890   1.261       .  A
N888        O891   1.263       .  A
N888       O1076   1.263       .  A
O889       N1069   1.263       .  A
O892       N1072   1.263       .  A
C893        C894   1.403   1_554  A
C893        C898   1.404       .  A
C893        H900   1.084       .  S
C894       C1079   1.414       .  A
C895       C1078   1.414       .  A
C895        C896   1.401       .  A
C895        N902   1.440       .  S
C896       C1081   1.408       .  A
C896        H901   1.082       .  S
C897       C1080   1.408   1_554  A
C897        C898   1.417       .  A
C898        N899   1.433       .  S
N899       O1087   1.263       .  A
N899        O904   1.262       .  A
N902        O905   1.261       .  A
N902       O1090   1.263       .  A
O903       N1083   1.263       .  A
O906       N1086   1.263       .  A
C907        H914   1.083       .  S
C908       C1093   1.413       .  A
C909       C1092   1.413   1_554  A
C909        C910   1.397       .  A
C909        N916   1.433       .  S
C910       C1095   1.404   1_554  A
C910        H915   1.084       .  S
C911       C1094   1.404       .  A
C911        C912   1.416       .  A
N913       O1101   1.263       .  A
N913        O918   1.263       .  A
N916       O1287   1.262       .  A
N916       O1472   1.263   1_545  A
O917       N1097   1.263       .  A
O919       N1284   1.262       .  A
O920       N1468   1.263       .  A
C921       C1092   1.490       .  S
C921       C1294   1.408   1_545  A
C922        H927   1.082   1_554  S
C923       C1064   1.494       .  S
C923       C1292   1.403   1_545  A
C924       C1291   1.403       .  A
C924        H928   1.082       .  S
C925       C1081   1.497       .  S
C926       C1289   1.408       .  A
C926        H929   1.082       .  S
C930       C1078   1.479       .  S
C930        C935   1.403       .  A
C931        C932   1.402       .  A
C931        H936   1.084       .  S
C932       C1050   1.479       .  S
C933        C934   1.405       .  A
C933        H937   1.084       .  S
C934       C1039   1.489       .  S
C934        C935   1.405       .  A
C935        H938   1.084       .  S
C939       C1095   1.485       .  S
C939        C940   1.408       .  A
C940        C941   1.405       .  A
C940        H945   1.084       .  S
C941       C1025   1.479       .  S
C941        C942   1.402       .  A
C942        H946   1.084   1_556  S
C943       C1011   1.476       .  S
C943        C944   1.398       .  A
C944        H947   1.084       .  S
O948       Cr966   2.008       .  S
O948        C956   1.264       .  A
O949       Cr966   1.981       .  S
O949        C950   1.264       .  A
C950       C1053   1.491       .  S
C950        O951   1.267       .  A
O951       Cr967   2.011       .  S
O952       Cr967   1.974       .  S
O952        C953   1.260       .  A
C953       C1022   1.474       .  S
C953        O954   1.266       .  A
O954       Cr968   2.011       .  S
O955       Cr968   1.977       .  S
O955        C956   1.258       .  A
C956        C983   1.486       .  S
O957       Cr966   1.973       .  S
O957        C965   1.262       .  A
O958       Cr966   2.008       .  S
O958        C959   1.264       .  A
C959       C1036   1.472       .  S
C959        O960   1.258       .  A
O960       Cr967   1.976       .  S
O961       Cr967   2.004       .  S
O961        C962   1.264       .  A
C962       C1008   1.489       .  S
C962        O963   1.260       .  A
O963       Cr968   1.972       .  S
O964       Cr968   2.016       .  S
O964        C965   1.267       .  A
C965        C997   1.489       .  S
Cr966       O969   1.770       .  S
Cr967       O969   1.772       .  S
Cr968       O969   1.770       .  S
C970       C1067   1.480       .  S
C970        C971   1.406       .  A
C971        C972   1.402       .  A
C971        H976   1.084       .  S
C972        C994   1.482       .  S
C972        C973   1.403       .  A
C973        H977   1.084       .  S
C974        C980   1.477       .  S
C974        C975   1.401       .  A
C975        H978   1.084       .  S
C979        C980   1.401       .  A
C979        C984   1.405       .  A
C979        H986   1.083       .  S
C980        C981   1.415       .  A
C981        C982   1.404       .  A
C981        N988   1.441       .  S
C982        C983   1.406       .  A
C982        H987   1.083       .  S
C983        C984   1.418       .  A
C984        N985   1.440       .  S
N985        O989   1.263       .  A
N985        O990   1.263       .  A
N988        O991   1.262       .  A
N988        O992   1.263       .  A
C993        C994   1.402       .  A
C993        C998   1.407       .  A
C993       H1000   1.084       .  S
C994        C995   1.409       .  A
C995        C996   1.396       .  A
C995       N1002   1.432       .  S
C996        C997   1.405       .  A
C996       H1001   1.084       .  S
C997        C998   1.420       .  A
C998        N999   1.432       .  S
N999       O1003   1.262       .  A
N999       O1004   1.262       .  A
N1002      O1005   1.262       .  A
N1002      O1006   1.262       .  A
C1007      C1008   1.407       .  A
C1007      C1012   1.401       .  A
C1007      H1014   1.083       .  S
C1008      C1009   1.420       .  A
C1009      C1010   1.406       .  A
C1009      N1016   1.436       .  S
C1010      C1011   1.400       .  A
C1010      H1015   1.083       .  S
C1011      C1012   1.413       .  A
C1012      N1013   1.442       .  S
N1013      O1017   1.263       .  A
N1013      O1018   1.263       .  A
N1016      O1019   1.263       .  A
N1016      O1020   1.263       .  A
C1021      C1022   1.404       .  A
C1021      C1026   1.410       .  A
C1021      H1028   1.084       .  S
C1022      C1023   1.407       .  A
C1023      C1024   1.395       .  A
C1023      N1030   1.430       .  S
C1024      C1025   1.402       .  A
C1024      H1029   1.085       .  S
C1025      C1026   1.417       .  A
C1026      N1027   1.441       .  S
N1027      O1031   1.263       .  A
N1027      O1032   1.262       .  A
N1030      O1033   1.261       .  A
N1030      O1034   1.263       .  A
C1035      C1036   1.402       .  A
C1035      C1040   1.402       .  A
C1035      H1042   1.085       .  S
C1036      C1037   1.419       .  A
C1037      C1038   1.407       .  A
C1037      N1044   1.447       .  S
C1038      C1039   1.406       .  A
C1038      H1043   1.084       .  S
C1039      C1040   1.415       .  A
C1040      N1041   1.439       .  S
N1041      O1045   1.262       .  A
N1044      O1047   1.261       .  A
N1044      O1048   1.263       .  A
C1049      C1050   1.400       .  A
C1049      C1054   1.401       .  A
C1049      H1056   1.084       .  S
C1050      C1051   1.413       .  A
C1051      C1052   1.406       .  A
C1051      N1058   1.441       .  S
C1052      C1053   1.408       .  A
C1052      H1057   1.083       .  S
C1053      C1054   1.419       .  A
C1054      N1055   1.434       .  S
N1055      O1059   1.262       .  A
N1055      O1060   1.262       .  A
N1058      O1061   1.263       .  A
N1058      O1062   1.263       .  A
C1063      C1064   1.406       .  A
C1063      C1068   1.403       .  A
C1063      H1070   1.082       .  S
C1064      C1249   1.419       .  A
C1065      C1248   1.419   1_556  A
C1065      N1072   1.437       .  S
C1066      C1435   1.402       .  A
C1066      H1071   1.084       .  S
C1067      C1434   1.402       .  A
C1067      C1068   1.417       .  A
C1068      N1069   1.439       .  S
N1069      O1074   1.261       .  A
N1072      O1075   1.263       .  A
C1077      C1078   1.403       .  A
C1077      C1082   1.404       .  A
C1077      H1084   1.084       .  S
C1079      C1080   1.401       .  A
C1079      N1086   1.440       .  S
C1080      H1085   1.082       .  S
C1081      C1082   1.417       .  A
C1082      N1083   1.433       .  S
N1083      O1088   1.262       .  A
N1086      O1089   1.261       .  A
C1091      H1098   1.083       .  S
C1093      C1094   1.397       .  A
C1093      N1100   1.433       .  S
C1094      H1099   1.084       .  S
C1095      C1096   1.416       .  A
N1097      O1102   1.263       .  A
N1100      O1471   1.262       .  A
N1100      O1288   1.263   1_545  A
O1103      N1468   1.262       .  A
O1104      N1284   1.263       .  A
C1105      C1276   1.490       .  S
C1106      C1291   1.404       .  A
C1106      H1111   1.082       .  S
C1107      C1248   1.494       .  S
C1107      C1290   1.404       .  A
C1108      H1112   1.082       .  S
C1109      C1265   1.497       .  S
C1109      C1294   1.408   1_554  A
C1110      C1293   1.408       .  A
C1110      H1113   1.082       .  S
C1114      C1262   1.479       .  S
C1114      C1299   1.404       .  A
C1114      C1119   1.403   1_556  A
C1115      C1298   1.404       .  A
C1115      C1116   1.402       .  A
C1115      H1120   1.084       .  S
C1116      C1234   1.479       .  S
C1116      C1301   1.402       .  A
C1117      C1300   1.402       .  A
C1117      C1118   1.405   1_556  A
C1117      H1121   1.084       .  S
C1118      C1223   1.489       .  S
C1118      C1119   1.405       .  A
C1119      H1122   1.084       .  S
C1123      C1279   1.485       .  S
C1123      C1124   1.408       .  A
C1123      C1312   1.408       .  A
C1124      C1125   1.405       .  A
C1124      H1129   1.084       .  S
C1125      C1209   1.479       .  S
C1125      C1126   1.402       .  A
C1126      C1311   1.398       .  A
C1126      H1130   1.084       .  S
C1127      C1195   1.476       .  S
C1127      C1310   1.398   1_554  A
C1127      C1128   1.398       .  A
C1128      C1307   1.408   1_554  A
C1128      H1131   1.084       .  S
O1132     Cr1150   2.008       .  S
O1132      C1140   1.264       .  A
O1133     Cr1150   1.981       .  S
O1133      C1134   1.264       .  A
C1134      C1237   1.491       .  S
C1134      O1135   1.267       .  A
O1135     Cr1151   2.011       .  S
O1136     Cr1151   1.974       .  S
O1136      C1137   1.260       .  A
C1137      C1206   1.474       .  S
C1137      O1138   1.266       .  A
O1138     Cr1152   2.011       .  S
O1139     Cr1152   1.977       .  S
O1139      C1140   1.258       .  A
C1140      C1167   1.486       .  S
O1141     Cr1150   1.973       .  S
O1141      C1149   1.262       .  A
O1142     Cr1150   2.008       .  S
O1142      C1143   1.264       .  A
C1143      C1220   1.472       .  S
C1143      O1144   1.258       .  A
O1144     Cr1151   1.976       .  S
O1145     Cr1151   2.004       .  S
O1145      C1146   1.264       .  A
C1146      C1192   1.489       .  S
C1146      O1147   1.260       .  A
O1147     Cr1152   1.972       .  S
O1148     Cr1152   2.016       .  S
O1148      C1149   1.267       .  A
C1149      C1181   1.489       .  S
Cr1150     O1153   1.770       .  S
Cr1151     O1153   1.772       .  S
Cr1152     O1153   1.770       .  S
C1154      C1251   1.480       .  S
C1154      C1155   1.406       .  A
C1154      C1343   1.406   1_554  A
C1155      C1156   1.402       .  A
C1155      H1160   1.084       .  S
C1156      C1178   1.482       .  S
C1156      C1157   1.403   1_554  A
C1157      C1342   1.399       .  A
C1157      H1161   1.084       .  S
C1158      C1164   1.477       .  S
C1158      C1341   1.399       .  A
C1158      C1159   1.401       .  A
C1159      C1338   1.406       .  A
C1159      H1162   1.084       .  S
C1163      C1164   1.401       .  A
C1163      C1168   1.405       .  A
C1163      H1170   1.083       .  S
C1164      C1165   1.415       .  A
C1165      C1166   1.404       .  A
C1165      N1172   1.441       .  S
C1166      C1167   1.406       .  A
C1166      H1171   1.083       .  S
C1167      C1168   1.418       .  A
C1168      N1169   1.440       .  S
N1169      O1173   1.263       .  A
N1169      O1174   1.263       .  A
N1172      O1175   1.262       .  A
N1172      O1176   1.263       .  A
C1177      C1178   1.402       .  A
C1177      C1182   1.407       .  A
C1177      H1184   1.084       .  S
C1178      C1179   1.409       .  A
C1179      C1180   1.396       .  A
C1179      N1186   1.432       .  S
C1180      C1181   1.405       .  A
C1180      H1185   1.084       .  S
C1181      C1182   1.420       .  A
C1182      N1183   1.432       .  S
N1183      O1187   1.262       .  A
N1183      O1188   1.262       .  A
N1186      O1189   1.262       .  A
N1186      O1190   1.262       .  A
C1191      C1192   1.407       .  A
C1191      C1196   1.401       .  A
C1191      H1198   1.083       .  S
C1192      C1193   1.420       .  A
C1193      C1194   1.406       .  A
C1193      N1200   1.436       .  S
C1194      C1195   1.400       .  A
C1194      H1199   1.083       .  S
C1195      C1196   1.413       .  A
C1196      N1197   1.442       .  S
N1197      O1201   1.263       .  A
N1197      O1202   1.263       .  A
N1200      O1203   1.263       .  A
N1200      O1204   1.263       .  A
C1205      C1206   1.404       .  A
C1205      C1210   1.410       .  A
C1205      H1212   1.084       .  S
C1206      C1207   1.407       .  A
C1207      C1208   1.395       .  A
C1207      N1214   1.430       .  S
C1208      C1209   1.402       .  A
C1208      H1213   1.085       .  S
C1209      C1210   1.417       .  A
C1210      N1211   1.441       .  S
N1211      O1215   1.263       .  A
N1211      O1216   1.262       .  A
N1214      O1217   1.261       .  A
N1214      O1218   1.263       .  A
C1219      C1220   1.402       .  A
C1219      C1224   1.402       .  A
C1219      H1226   1.085       .  S
C1220      C1221   1.419       .  A
C1221      C1222   1.407       .  A
C1221      N1228   1.447       .  S
C1222      C1223   1.406       .  A
C1222      H1227   1.084       .  S
C1223      C1224   1.415       .  A
C1224      N1225   1.439       .  S
N1225      O1229   1.262       .  A
N1225      O1414   1.262       .  A
N1228      O1231   1.261       .  A
N1228      O1232   1.263       .  A
O1230      N1409   1.262       .  A
C1233      C1234   1.400       .  A
C1233      C1238   1.401       .  A
C1233      H1240   1.084       .  S
C1234      C1235   1.413       .  A
C1235      C1236   1.406       .  A
C1235      N1242   1.441       .  S
C1236      C1237   1.408       .  A
C1236      H1241   1.083       .  S
C1237      C1238   1.419       .  A
C1238      N1239   1.434       .  S
N1239      O1243   1.262       .  A
N1239      O1244   1.262       .  A
N1242      O1245   1.263       .  A
N1242      O1246   1.263       .  A
C1247      C1248   1.406       .  A
C1247      C1252   1.403       .  A
C1247      H1254   1.082       .  S
C1249      C1434   1.402       .  A
C1249      N1256   1.437   1_545  S
C1250      C1433   1.402       .  A
C1250      H1255   1.084       .  S
C1251      C1252   1.417       .  A
C1252      N1253   1.439       .  S
N1253      O1441   1.263       .  A
N1253      O1258   1.261       .  A
N1256      O1259   1.263       .  A
N1256      O1444   1.263       .  A
O1257      N1437   1.263       .  A
O1260      N1440   1.263       .  A
C1261      C1262   1.403   1_554  A
C1261      C1266   1.404       .  A
C1261      H1268   1.084       .  S
C1262      C1447   1.414       .  A
C1263      C1446   1.414       .  A
C1263      C1264   1.401       .  A
C1263      N1270   1.440       .  S
C1264      C1449   1.408       .  A
C1264      H1269   1.082       .  S
C1265      C1448   1.408   1_554  A
C1265      C1266   1.417       .  A
C1266      N1267   1.433       .  S
N1267      O1455   1.263       .  A
N1267      O1272   1.262       .  A
N1270      O1273   1.261       .  A
N1270      O1458   1.263       .  A
O1271      N1451   1.263       .  A
O1274      N1454   1.263       .  A
C1275      H1282   1.083       .  S
C1276      C1461   1.413       .  A
C1277      C1460   1.413   1_554  A
C1277      C1278   1.397       .  A
C1277      N1284   1.433       .  S
C1278      C1463   1.404   1_554  A
C1278      H1283   1.084       .  S
C1279      C1462   1.404       .  A
C1279      C1280   1.416       .  A
N1281      O1469   1.263       .  A
N1281      O1286   1.263       .  A
O1285      N1465   1.263       .  A
C1289      C1460   1.490       .  S
C1290      H1295   1.082   1_554  S
C1291      C1432   1.494       .  S
C1292      H1296   1.082       .  S
C1293      C1449   1.497       .  S
C1294      H1297   1.082       .  S
C1298      C1446   1.479       .  S
C1298      C1303   1.403       .  A
C1299      C1300   1.402       .  A
C1299      H1304   1.084       .  S
C1300      C1418   1.479       .  S
C1301      C1302   1.405       .  A
C1301      H1305   1.084       .  S
C1302      C1407   1.489       .  S
C1302      C1303   1.405       .  A
C1303      H1306   1.084       .  S
C1307      C1463   1.485       .  S
C1307      C1308   1.408       .  A
C1308      C1309   1.405       .  A
C1308      H1313   1.084       .  S
C1309      C1393   1.479       .  S
C1309      C1310   1.402       .  A
C1310      H1314   1.084   1_556  S
C1311      C1379   1.476       .  S
C1311      C1312   1.398       .  A
C1312      H1315   1.084       .  S
O1316     Cr1334   2.008       .  S
O1316      C1324   1.264       .  A
O1317     Cr1334   1.981       .  S
O1317      C1318   1.264       .  A
C1318      C1421   1.491       .  S
C1318      O1319   1.267       .  A
O1319     Cr1335   2.011       .  S
O1320     Cr1335   1.974       .  S
O1320      C1321   1.260       .  A
C1321      C1390   1.474       .  S
C1321      O1322   1.266       .  A
O1322     Cr1336   2.011       .  S
O1323     Cr1336   1.977       .  S
O1323      C1324   1.258       .  A
C1324      C1351   1.486       .  S
O1325     Cr1334   1.973       .  S
O1325      C1333   1.262       .  A
O1326     Cr1334   2.008       .  S
O1326      C1327   1.264       .  A
C1327      C1404   1.472       .  S
C1327      O1328   1.258       .  A
O1328     Cr1335   1.976       .  S
O1329     Cr1335   2.004       .  S
O1329      C1330   1.264       .  A
C1330      C1376   1.489       .  S
C1330      O1331   1.260       .  A
O1331     Cr1336   1.972       .  S
O1332     Cr1336   2.016       .  S
O1332      C1333   1.267       .  A
C1333      C1365   1.489       .  S
Cr1334     O1337   1.770       .  S
Cr1335     O1337   1.772       .  S
Cr1336     O1337   1.770       .  S
C1338      C1435   1.480       .  S
C1338      C1339   1.406       .  A
C1339      C1340   1.402       .  A
C1339      H1344   1.084       .  S
C1340      C1362   1.482       .  S
C1340      C1341   1.403       .  A
C1341      H1345   1.084       .  S
C1342      C1348   1.477       .  S
C1342      C1343   1.401       .  A
C1343      H1346   1.084       .  S
C1347      C1348   1.401       .  A
C1347      C1352   1.405       .  A
C1347      H1354   1.083       .  S
C1348      C1349   1.415       .  A
C1349      C1350   1.404       .  A
C1349      N1356   1.441       .  S
C1350      C1351   1.406       .  A
C1350      H1355   1.083       .  S
C1351      C1352   1.418       .  A
C1352      N1353   1.440       .  S
N1353      O1357   1.263       .  A
N1353      O1358   1.263       .  A
N1356      O1359   1.262       .  A
N1356      O1360   1.263       .  A
C1361      C1362   1.402       .  A
C1361      C1366   1.407       .  A
C1361      H1368   1.084       .  S
C1362      C1363   1.409       .  A
C1363      C1364   1.396       .  A
C1363      N1370   1.432       .  S
C1364      C1365   1.405       .  A
C1364      H1369   1.084       .  S
C1365      C1366   1.420       .  A
C1366      N1367   1.432       .  S
N1367      O1371   1.262       .  A
N1367      O1372   1.262       .  A
N1370      O1373   1.262       .  A
N1370      O1374   1.262       .  A
C1375      C1376   1.407       .  A
C1375      C1380   1.401       .  A
C1375      H1382   1.083       .  S
C1376      C1377   1.420       .  A
C1377      C1378   1.406       .  A
C1377      N1384   1.436       .  S
C1378      C1379   1.400       .  A
C1378      H1383   1.083       .  S
C1379      C1380   1.413       .  A
C1380      N1381   1.442       .  S
N1381      O1385   1.263       .  A
N1381      O1386   1.263       .  A
N1384      O1387   1.263       .  A
N1384      O1388   1.263       .  A
C1389      C1390   1.404       .  A
C1389      C1394   1.410       .  A
C1389      H1396   1.084       .  S
C1390      C1391   1.407       .  A
C1391      C1392   1.395       .  A
C1391      N1398   1.430       .  S
C1392      C1393   1.402       .  A
C1392      H1397   1.085       .  S
C1393      C1394   1.417       .  A
C1394      N1395   1.441       .  S
N1395      O1399   1.263       .  A
N1395      O1400   1.262       .  A
N1398      O1401   1.261       .  A
N1398      O1402   1.263       .  A
C1403      C1404   1.402       .  A
C1403      C1408   1.402       .  A
C1403      H1410   1.085       .  S
C1404      C1405   1.419       .  A
C1405      C1406   1.407       .  A
C1405      N1412   1.447       .  S
C1406      C1407   1.406       .  A
C1406      H1411   1.084       .  S
C1407      C1408   1.415       .  A
C1408      N1409   1.439       .  S
N1409      O1413   1.262       .  A
N1412      O1415   1.261       .  A
N1412      O1416   1.263       .  A
C1417      C1418   1.400       .  A
C1417      C1422   1.401       .  A
C1417      H1424   1.084       .  S
C1418      C1419   1.413       .  A
C1419      C1420   1.406       .  A
C1419      N1426   1.441       .  S
C1420      C1421   1.408       .  A
C1420      H1425   1.083       .  S
C1421      C1422   1.419       .  A
C1422      N1423   1.434       .  S
N1423      O1427   1.262       .  A
N1423      O1428   1.262       .  A
N1426      O1429   1.263       .  A
N1426      O1430   1.263       .  A
C1431      C1432   1.406       .  A
C1431      C1436   1.403       .  A
C1431      H1438   1.082       .  S
C1433      N1440   1.437   1_545  S
C1434      H1439   1.084       .  S
C1435      C1436   1.417       .  A
C1436      N1437   1.439       .  S
N1437      O1442   1.261       .  A
N1440      O1443   1.263       .  A
C1445      C1446   1.403       .  A
C1445      C1450   1.404       .  A
C1445      H1452   1.084       .  S
C1447      C1448   1.401       .  A
C1447      N1454   1.440       .  S
C1448      H1453   1.082       .  S
C1449      C1450   1.417       .  A
C1450      N1451   1.433       .  S
N1451      O1456   1.262       .  A
N1454      O1457   1.261       .  A
C1459      H1466   1.083       .  S
C1461      C1462   1.397       .  A
C1461      N1468   1.433       .  S
C1462      H1467   1.084       .  S
C1463      C1464   1.416       .  A
N1465      O1470   1.263       .  A
