geometry optimzed in LAMMPS
_audit_creation_date              2020-12-01 
_audit_creation_method            'lammps2cif' 
_symmetry_space_group_name_H-M    'P1' 
_symmetry_Int_Tables_number       1 
_symmetry_cell_setting            triclinic 
loop_ 
_symmetry_equiv_pos_as_xyz 
  x,y,z 
_cell_length_a                    37.41110921 
_cell_length_b                    36.68962009647756 
_cell_length_c                    36.663352344240586 
_cell_angle_alpha                 89.57213655582787 
_cell_angle_beta                  91.4305806525271 
_cell_angle_gamma                 89.21589718246655 
loop_ 
_atom_site_label 
_atom_site_type_symbol 
_atom_site_fract_x 
_atom_site_fract_y 
_atom_site_fract_z 
_atom_site_charge 
C1          C  0.29412398  0.31758226  0.29643011    -0.00500
C2          C  0.29737148  0.76124126  0.31515187    -0.00500
N3          N  0.23642196  0.46481485  0.32900048    -0.25300
N4          N  0.26556963  0.48166982  0.31863862    -0.33100
C5          C  0.28943010  0.45609103  0.30808312     0.03100
C6          C  0.27421442  0.42183879  0.31141201     0.09100
C7          C  0.24058524  0.42860111  0.32472722    -0.04000
H8          H  0.31627978  0.46182765  0.29959104     0.09800
H9          H  0.22162939  0.40852384  0.33348178     0.11000
Cu10       Cu  0.27082754  0.53916150  0.32120473     0.44200
Cu11       Cu  0.19601623  0.49031877  0.35683395     0.42000
Cu12       Cu  0.19687430  0.58750272  0.36342958     0.43900
N13         N  0.26547689  0.59681458  0.32329339    -0.32600
N14         N  0.23701674  0.61384816  0.33606585    -0.26900
C15         C  0.24178934  0.65017395  0.33440060    -0.03000
C16         C  0.27512450  0.65669751  0.32041985     0.09200
C17         C  0.28940656  0.62223483  0.31382598     0.03000
H18         H  0.22358048  0.67019224  0.34540166     0.10700
H19         H  0.31583643  0.61611793  0.30400956     0.09700
N20         N  0.17294350  0.55427939  0.40142484    -0.34100
N21         N  0.17248151  0.51841908  0.39865854    -0.26300
C22         C  0.16401382  0.50388907  0.43099241    -0.01500
C23         C  0.15930276  0.53180414  0.45553744     0.07100
C24         C  0.16478840  0.56351985  0.43571003     0.05200
H25         H  0.16579687  0.47507447  0.43741192     0.10300
H26         H  0.16711661  0.59083157  0.44630238     0.09100
C27         C  0.73456146  0.73516257  0.30602934    -0.00500
N28         N  0.58506408  0.71009923  0.25743639    -0.25300
N29         N  0.57020496  0.73432730  0.27915569    -0.33100
C30         C  0.59666731  0.75123347  0.29800855     0.03100
C31         C  0.62957548  0.73721185  0.28736723     0.09100
C32         C  0.62090614  0.71116266  0.26159192    -0.04000
H33         H  0.59233198  0.77159662  0.31868615     0.09800
H34         H  0.63914953  0.69283231  0.24816068     0.11000
Cu35       Cu  0.51390905  0.74134840  0.28246083     0.44200
Cu36       Cu  0.55650547  0.67297120  0.22620236     0.42000
Cu37       Cu  0.46081104  0.68134469  0.22388093     0.43900
N38         N  0.45712774  0.74222548  0.27859473    -0.32600
N39         N  0.43844792  0.72125018  0.25613874    -0.26900
C40         C  0.40322372  0.72676387  0.26114598    -0.03000
C41         C  0.39908876  0.75238407  0.28823537     0.09200
C42         C  0.43384559  0.76146935  0.29872513     0.03000
H43         H  0.38231214  0.71128130  0.24782803     0.10700
H44         H  0.44158696  0.77963407  0.32056108     0.09700
N45         N  0.48799549  0.63726767  0.20240992    -0.34100
N46         N  0.52321295  0.63394896  0.20348455    -0.26300
C47         C  0.53238941  0.60006820  0.19304898    -0.01500
C48         C  0.50132859  0.58110227  0.18519085     0.07100
C49         C  0.47380700  0.60566964  0.19122877     0.05200
H50         H  0.55947372  0.58936876  0.19401412     0.10300
H51         H  0.44548907  0.60000716  0.19055386     0.09100
N52         N  0.77603650  0.58405923  0.34600382    -0.25300
N53         N  0.75484183  0.56837481  0.32146046    -0.33100
C54         C  0.73752449  0.59482806  0.30193617     0.03100
C55         C  0.74863507  0.62854613  0.31453999     0.09100
C56         C  0.77306364  0.62052246  0.34248317    -0.04000
H57         H  0.71752378  0.58993793  0.28077831     0.09800
H58         H  0.78621356  0.63969682  0.36043493     0.11000
Cu59       Cu  0.74933223  0.51138143  0.31697302     0.44200
Cu60       Cu  0.80504805  0.55640802  0.38672530     0.42000
Cu61       Cu  0.80327078  0.45957981  0.38362886     0.43900
N62         N  0.75153065  0.45388855  0.31936351    -0.32600
N63         N  0.77223950  0.43573354  0.34319718    -0.26900
C64         C  0.76796143  0.39973166  0.33862317    -0.03000
C65         C  0.74331755  0.39449531  0.31048456     0.09200
C66         C  0.73321667  0.42946394  0.29908038     0.03000
H67         H  0.78074373  0.37900163  0.35576437     0.10700
H68         H  0.71353082  0.43656921  0.27800871     0.09700
N69         N  0.82694242  0.48761587  0.42630475    -0.34100
N70         N  0.82724987  0.52354954  0.42786200    -0.26300
C71         C  0.83952599  0.53354601  0.46108028    -0.01500
C72         C  0.84726074  0.50221477  0.48138541     0.07100
C73         C  0.83912184  0.47371197  0.45833508     0.05200
H74         H  0.84018091  0.56141891  0.47042399     0.10300
H75         H  0.83930093  0.44500323  0.46532743     0.09100
C76         C  0.72625570  0.28919352  0.30184994    -0.00500
N77         N  0.43640335  0.34176745  0.23820876    -0.25300
N78         N  0.45136263  0.31376627  0.25607761    -0.33100
C79         C  0.42490517  0.29337725  0.26979405     0.03100
C80         C  0.39194434  0.30943642  0.26038252     0.09100
C81         C  0.40057045  0.34008396  0.24028720    -0.04000
H82         H  0.42929469  0.26947015  0.28685617     0.09800
H83         H  0.38233277  0.36054487  0.22894285     0.11000
Cu84       Cu  0.50777853  0.30666996  0.26280897     0.44200
Cu85       Cu  0.46452755  0.38342501  0.21397761     0.42000
Cu86       Cu  0.55972995  0.37366003  0.21377312     0.43900
N87         N  0.56475735  0.30738430  0.26319674    -0.32600
N88         N  0.58288117  0.33094501  0.24361819    -0.26900
C89         C  0.61822076  0.32559125  0.24975867    -0.03000
C90         C  0.62319923  0.29735879  0.27464658     0.09200
C91         C  0.58863183  0.28665931  0.28279258     0.03000
H92         H  0.63868862  0.34271455  0.23870189     0.10700
H93         H  0.58143864  0.26604771  0.30244542     0.09700
N94         N  0.53293112  0.42018787  0.19504083    -0.34100
N95         N  0.49779204  0.42398993  0.19554332    -0.26300
C96         C  0.48884656  0.45880935  0.18747414    -0.01500
C97         C  0.51998962  0.47794642  0.18179891     0.07100
C98         C  0.54732542  0.45247290  0.18661027     0.05200
H99         H  0.46191900  0.46975625  0.18857631     0.10300
H100        H  0.57572338  0.45771836  0.18699642     0.09100
C101        C  0.72417835  0.30021917  0.74449743    -0.00500
N102        N  0.68142127  0.25103364  0.59724415    -0.25300
N103        N  0.70698347  0.26847438  0.58027823    -0.33100
C104        C  0.72699160  0.28631452  0.60530715     0.03100
C105        C  0.71378791  0.27931427  0.63962891     0.09100
C106        C  0.68473968  0.25698306  0.63337919    -0.04000
H107        H  0.74931507  0.30349501  0.59897416     0.09800
H108        H  0.66645989  0.24694442  0.65340828     0.11000
Cu109      Cu  0.71299105  0.26739616  0.52353655     0.44200
Cu110      Cu  0.64154249  0.22190626  0.57040054     0.42000
Cu111      Cu  0.65217240  0.20826987  0.47406567     0.43900
N112        N  0.71255723  0.26090929  0.46671720    -0.32600
N113        N  0.69120969  0.23809361  0.44925314    -0.26900
C114        C  0.69506177  0.24204896  0.41308920    -0.03000
C115        C  0.71996054  0.26885027  0.40723246     0.09200
C116        C  0.73050890  0.28017127  0.44182969     0.03000
H117        H  0.67885282  0.22835159  0.39270979     0.10700
H118        H  0.74858537  0.30208638  0.44834522     0.09700
N119        N  0.60708373  0.19329290  0.50140919    -0.34100
N120        N  0.60287662  0.19852221  0.53667247    -0.26300
C121        C  0.56880039  0.19140610  0.54482984    -0.01500
C122        C  0.55071944  0.18146625  0.51302590     0.07100
C123        C  0.57585202  0.18295102  0.48614204     0.05200
H124        H  0.55749943  0.19609736  0.57127561     0.10300
H125        H  0.57111478  0.17952808  0.45714098     0.09100
N126        N  0.57973170  0.33754629  0.79870733    -0.25300
N127        N  0.56220453  0.31831376  0.77382852    -0.33100
C128        C  0.58640119  0.30152175  0.75272206     0.03100
C129        C  0.62065421  0.31044285  0.76495969     0.09100
C130        C  0.61521215  0.33335985  0.79423671    -0.04000
H131        H  0.57961303  0.28482781  0.72942305     0.09800
H132        H  0.63541072  0.34753518  0.81002122     0.11000
Cu133      Cu  0.50568190  0.31794396  0.76877073     0.44200
Cu134      Cu  0.55489169  0.37280430  0.83447757     0.42000
Cu135      Cu  0.45831657  0.37187439  0.83520979     0.43900
N136        N  0.44924232  0.32225951  0.77065657    -0.32600
N137        N  0.43235015  0.33995228  0.79659324    -0.26900
C138        C  0.39680531  0.33918231  0.78964406    -0.03000
C139        C  0.39074341  0.32058265  0.75745944     0.09200
C140        C  0.42460342  0.31045623  0.74608036     0.03000
H141        H  0.37709320  0.35388661  0.80511182     0.10700
H142        H  0.43089966  0.29680122  0.72093987     0.09700
N143        N  0.48886749  0.41197024  0.85996089    -0.34100
N144        N  0.52416948  0.41253282  0.85940450    -0.26300
C145        C  0.53538918  0.44536849  0.87067599    -0.01500
C146        C  0.50563766  0.46664919  0.87845351     0.07100
C147        C  0.47673038  0.44439232  0.87167440     0.05200
H148        H  0.56285315  0.45405055  0.86971828     0.10300
H149        H  0.44880636  0.45250494  0.87147392     0.09100
C150        C  0.28923204  0.31301054  0.72841934    -0.00500
N151        N  0.32235038  0.25667237  0.44299014    -0.25300
N152        N  0.29479964  0.27321229  0.45806032    -0.33100
C153        C  0.27613484  0.29165163  0.43167873     0.03100
C154        C  0.29319620  0.28698121  0.39881493     0.09100
C155        C  0.32231396  0.26455179  0.40713002    -0.04000
H156        H  0.25217604  0.30768179  0.43613445     0.09800
H157        H  0.34183464  0.25414106  0.38843132     0.11000
Cu158      Cu  0.28523715  0.27078102  0.51438740     0.44200
Cu159      Cu  0.35957602  0.22401547  0.47076875     0.42000
Cu160      Cu  0.34842956  0.21163016  0.56555503     0.43900
N161        N  0.28556718  0.26387981  0.57148928    -0.32600
N162        N  0.30828058  0.24165814  0.58913882    -0.26900
C163        C  0.30465350  0.24550729  0.62522970    -0.03000
C164        C  0.27845790  0.27154658  0.63109981     0.09200
C165        C  0.26666010  0.28242573  0.59639430     0.03000
H166        H  0.32142105  0.23169073  0.64557315     0.10700
H167        H  0.24752896  0.30401811  0.58981451     0.09700
N168        N  0.39339879  0.19344056  0.53942732    -0.34100
N169        N  0.39744424  0.19792918  0.50403601    -0.26300
C170        C  0.43134681  0.18954288  0.49580666    -0.01500
C171        C  0.44968079  0.17965622  0.52778474     0.07100
C172        C  0.42467698  0.18222996  0.55481408     0.05200
H173        H  0.44242593  0.19386781  0.46919164     0.10300
H174        H  0.42970128  0.17953725  0.58390909     0.09100
C175        C  0.73678789  0.74168590  0.75326579    -0.00500
N176        N  0.44755607  0.69883588  0.79840541    -0.25300
N177        N  0.46289501  0.71970140  0.77383199    -0.33100
C178        C  0.43697429  0.73586840  0.75292527     0.03100
C179        C  0.40396417  0.72549433  0.76562118     0.09100
C180        C  0.41174699  0.70192267  0.79435773    -0.04000
H181        H  0.44176446  0.75339651  0.72973650     0.09800
H182        H  0.39283121  0.68623610  0.80959916     0.11000
Cu183      Cu  0.51866781  0.72499255  0.76982424     0.44200
Cu184      Cu  0.47514366  0.66230422  0.83267917     0.42000
Cu185      Cu  0.56995748  0.66527005  0.83183775     0.43900
N186        N  0.57483770  0.72522129  0.77518804    -0.32600
N187        N  0.59268381  0.70386515  0.79870032    -0.26900
C188        C  0.62793062  0.70850167  0.79502289    -0.03000
C189        C  0.63303563  0.73404802  0.76776085     0.09200
C190        C  0.59872764  0.74410995  0.75577929     0.03000
H191        H  0.64820102  0.69274252  0.80988825     0.10700
H192        H  0.59172863  0.76286319  0.73375115     0.09700
N193        N  0.54296117  0.62324890  0.85621125    -0.34100
N194        N  0.50772213  0.62205360  0.85657402    -0.26300
C195        C  0.49797770  0.58893576  0.86840607    -0.01500
C196        C  0.52869692  0.56818736  0.87563765     0.07100
C197        C  0.55664876  0.59099992  0.86779858     0.05200
H198        H  0.47063444  0.57977037  0.86836696     0.10300
H199        H  0.58471984  0.58357160  0.86723146     0.09100
N200        N  0.79447031  0.59432137  0.72132064    -0.25300
N201        N  0.77043766  0.57710188  0.74070367    -0.33100
C202        C  0.74984273  0.60217009  0.75716240     0.03100
C203        C  0.76149871  0.63669087  0.74796259     0.09100
C204        C  0.78993530  0.63059489  0.72520314    -0.04000
H205        H  0.72689069  0.59580062  0.77329677     0.09800
H206        H  0.80450396  0.65090501  0.71031413     0.11000
Cu207      Cu  0.76404158  0.52018518  0.74121252     0.44200
Cu208      Cu  0.82735627  0.56858488  0.68439877     0.42000
Cu209      Cu  0.81695258  0.47111301  0.67702020     0.43900
N210        N  0.76318887  0.46311286  0.73605951    -0.32600
N211        N  0.78367229  0.44532727  0.71309660    -0.26900
C212        C  0.77672941  0.40945605  0.71494319    -0.03000
C213        C  0.75044274  0.40412922  0.74029341     0.09200
C214        C  0.74239308  0.43879553  0.75299120     0.03000
H215        H  0.78870572  0.38909775  0.69770740     0.10700
H216        H  0.72223273  0.44587169  0.77247170     0.09700
N217        N  0.84088004  0.50287352  0.63783206    -0.34100
N218        N  0.84503958  0.53847204  0.64053377    -0.26300
C219        C  0.85471436  0.55178374  0.60799081    -0.01500
C220        C  0.85642495  0.52331493  0.58353709     0.07100
C221        C  0.84775796  0.49261802  0.60357527     0.05200
H222        H  0.85662962  0.58051932  0.60160033     0.10300
H223        H  0.84305862  0.46550022  0.59333108     0.09100
N224        N  0.70720439  0.79297518  0.45333208    -0.25300
N225        N  0.72870460  0.76973823  0.47124121    -0.33100
C226        C  0.74549178  0.74895337  0.44639628     0.03100
C227        C  0.73428090  0.75995761  0.41139281     0.09100
C228        C  0.70997952  0.78797463  0.41713134    -0.04000
H229        H  0.76356938  0.72652474  0.45322573     0.09800
H230        H  0.69356427  0.80204965  0.39665215     0.11000
Cu231      Cu  0.73167439  0.76709432  0.52933033     0.44200
Cu232      Cu  0.67006428  0.82605036  0.47842275     0.42000
Cu233      Cu  0.67028675  0.82932044  0.57598736     0.43900
N234        N  0.72934795  0.77286893  0.58703763    -0.32600
N235        N  0.70821821  0.79678846  0.60313429    -0.26900
C236        C  0.71164913  0.79294367  0.63963584    -0.03000
C237        C  0.73595497  0.76504157  0.64747003     0.09200
C238        C  0.74657377  0.75294944  0.61340613     0.03000
H239        H  0.69567366  0.80778424  0.65888722     0.10700
H240        H  0.76446971  0.73026135  0.60823683     0.09700
N241        N  0.62803315  0.84889142  0.54353139    -0.34100
N242        N  0.62819871  0.84767624  0.50753836    -0.26300
C243        C  0.59533209  0.85616961  0.49424014    -0.01500
C244        C  0.57322921  0.86276717  0.52315915     0.07100
C245        C  0.59493623  0.85813839  0.55412947     0.05200
H246        H  0.58732074  0.85441237  0.46575072     0.10300
H247        H  0.58677850  0.85835030  0.58221683     0.09100
C248        C  0.30207805  0.74484413  0.74657704    -0.00500
N249        N  0.23968879  0.60734818  0.70358518    -0.25300
N250        N  0.25382865  0.58807466  0.73108751    -0.33100
C251        C  0.27161393  0.61073198  0.75365414     0.03100
C252        C  0.26907811  0.64557126  0.73905328     0.09100
C253        C  0.24841609  0.64241323  0.70752696    -0.04000
H254        H  0.28651106  0.60224274  0.77800740     0.09800
H255        H  0.24049516  0.66387188  0.68849012     0.11000
Cu256      Cu  0.25225877  0.53149667  0.73353978     0.44200
Cu257      Cu  0.21162020  0.58645834  0.65963929     0.42000
Cu258      Cu  0.21827021  0.49114846  0.64861002     0.43900
N259        N  0.25349452  0.47593329  0.72273289    -0.32600
N260        N  0.24236074  0.46182966  0.69141169    -0.26900
C261        C  0.24852272  0.42568080  0.69222442    -0.03000
C262        C  0.26418275  0.41642256  0.72571162     0.09200
C263        C  0.26669697  0.44891141  0.74445322     0.03000
H264        H  0.24148127  0.40751242  0.67016886     0.10700
H265        H  0.27780116  0.45271800  0.77166381     0.09700
N266        N  0.19414097  0.52525642  0.60960051    -0.34100
N267        N  0.19128351  0.56082501  0.61402455    -0.26300
C268        C  0.17768769  0.57618288  0.58321096    -0.01500
C269        C  0.17167489  0.54894461  0.55805485     0.07100
C270        C  0.18234348  0.51689408  0.57579452     0.05200
H271        H  0.17463546  0.60524592  0.57864638     0.10300
H272        H  0.18371806  0.48982371  0.56441201     0.09100
N273        N  0.32577479  0.81849617  0.61023956    -0.25300
N274        N  0.30002186  0.80075105  0.59282427    -0.33100
C275        C  0.27861407  0.78580328  0.61779081     0.03100
C276        C  0.29182543  0.79408217  0.65240754     0.09100
C277        C  0.32152209  0.81519863  0.64635341    -0.04000
H278        H  0.25699898  0.76745855  0.61130836     0.09800
H279        H  0.34045994  0.82520237  0.66653682     0.11000
Cu280      Cu  0.29892635  0.79216631  0.53629134     0.44200
Cu281      Cu  0.37063606  0.84004331  0.58655888     0.42000
Cu282      Cu  0.37849973  0.82566598  0.49222791     0.43900
N283        N  0.30837308  0.78661658  0.48042835    -0.32600
N284        N  0.33709645  0.79985303  0.46501687    -0.26900
C285        C  0.33603323  0.79232210  0.42926386    -0.03000
C286        C  0.30521019  0.77326485  0.42138084     0.09200
C287        C  0.28836758  0.76985281  0.45452692     0.03000
H288        H  0.35683513  0.79940997  0.41061068     0.10700
H289        H  0.26343099  0.75627318  0.45940956     0.09700
N290        N  0.41977368  0.84625643  0.52399019    -0.34100
N291        N  0.41709169  0.85155160  0.55937366    -0.26300
C292        C  0.44927859  0.86094055  0.57330014    -0.01500
C293        C  0.47334303  0.86167758  0.54522204     0.07100
C294        C  0.45359194  0.85223786  0.51428061     0.05200
H295        H  0.45518754  0.86492612  0.60202143     0.10300
H296        H  0.46334627  0.84767608  0.48715599     0.09100
C297        C  0.22753790  0.26490134  0.22851841    -0.00500
C298        C  0.23273120  0.24755643  0.79077132    -0.00500
C299        C  0.23575539  0.82119308  0.24666994    -0.00500
C300        C  0.80155476  0.80289377  0.25397062    -0.00500
N301        N  0.09300302  0.85081247  0.30319735    -0.25300
N302        N  0.07776179  0.82403358  0.28475151    -0.33100
C303        C  0.10395167  0.80325334  0.27040081     0.03100
C304        C  0.13702987  0.81770420  0.28016370     0.09100
C305        C  0.12878749  0.84792294  0.30091877    -0.04000
H306        H  0.09930657  0.77993497  0.25311444     0.09800
H307        H  0.14727445  0.86705636  0.31297556     0.11000
Cu308      Cu  0.02144978  0.81825350  0.27924992     0.44200
Cu309      Cu  0.06546583  0.89199438  0.32943181     0.42000
Cu310      Cu  0.97082079  0.88422111  0.33170709     0.43900
N311        N  0.96471801  0.81972805  0.28122463    -0.32600
N312        N  0.94723020  0.84303472  0.30187633    -0.26900
C313        C  0.91181415  0.83840303  0.29727902    -0.03000
C314        C  0.90606704  0.81085346  0.27233839     0.09200
C315        C  0.94030294  0.79975590  0.26257549     0.03000
H316        H  0.89176953  0.85539889  0.30977526     0.10700
H317        H  0.94687382  0.77925382  0.24267998     0.09700
N318        N  0.99748450  0.92960263  0.35044953    -0.34100
N319        N  0.03256133  0.93269930  0.34939299    -0.26300
C320        C  0.04139145  0.96711799  0.35772445    -0.01500
C321        C  0.01019433  0.98667652  0.36410467     0.07100
C322        C  0.98297972  0.96192270  0.35942062     0.05200
H323        H  0.06818924  0.97761028  0.35625220     0.10300
H324        H  0.95454842  0.96774753  0.35949536     0.09100
C325        C  0.24637290  0.80649472  0.81332395    -0.00500
N326        N  0.27663255  0.10328415  0.84897645    -0.25300
N327        N  0.25627445  0.08471973  0.82585496    -0.33100
C328        C  0.23789221  0.10830771  0.80395541     0.03100
C329        C  0.24726905  0.14335534  0.81340143     0.09100
C330        C  0.27187036  0.13913627  0.84210924    -0.04000
H331        H  0.21877140  0.10049727  0.78291171     0.09800
H332        H  0.28451283  0.16050342  0.85776401     0.11000
Cu333      Cu  0.25338066  0.02817091  0.82499338     0.44200
Cu334      Cu  0.30874138  0.07972141  0.89039185     0.42000
Cu335      Cu  0.31744129  0.98325572  0.88563827     0.43900
N336        N  0.25798501  0.97186403  0.83036508    -0.32600
N337        N  0.28231726  0.95600322  0.85210197    -0.26900
C338        C  0.27895862  0.91975034  0.85040669    -0.03000
C339        C  0.25121690  0.91218353  0.82617777     0.09200
C340        C  0.23830070  0.94583168  0.81411296     0.03000
H341        H  0.29510646  0.90057214  0.86641578     0.10700
H342        H  0.21633487  0.95098774  0.79494230     0.09700
N343        N  0.34129503  0.01291079  0.92649197    -0.34100
N344        N  0.33725589  0.04856890  0.92934048    -0.26300
C345        C  0.34958311  0.05871020  0.96249188    -0.01500
C346        C  0.36173651  0.02772641  0.98132952     0.07100
C347        C  0.35625066  0.99935891  0.95746177     0.05200
H348        H  0.34679188  0.08599893  0.97308637     0.10300
H349        H  0.35943478  0.97056819  0.96352707     0.09100
C350        C  0.80959511  0.80064324  0.80735455    -0.00500
N351        N  0.75048113  0.94846731  0.83408547    -0.25300
N352        N  0.77154017  0.96505033  0.81082526    -0.33100
C353        C  0.79217209  0.93956076  0.79494528     0.03100
C354        C  0.78336489  0.90545157  0.80835424     0.09100
C355        C  0.75679372  0.91224307  0.83309646    -0.04000
H356        H  0.81279387  0.94547051  0.77568056     0.09800
H357        H  0.74446566  0.89260416  0.85080166     0.11000
Cu358      Cu  0.77225403  0.02195735  0.80199369     0.44200
Cu359      Cu  0.71785070  0.97501543  0.87089161     0.42000
Cu360      Cu  0.71417349  0.07087130  0.86212957     0.43900
N361        N  0.76382503  0.07890895  0.79932086    -0.32600
N362        N  0.74199162  0.09581926  0.82162088    -0.26900
C363        C  0.74293859  0.13190127  0.81569646    -0.03000
C364        C  0.76640775  0.13859601  0.78808474     0.09200
C365        C  0.77910464  0.10433963  0.77810701     0.03000
H366        H  0.72832940  0.15179959  0.83130017     0.10700
H367        H  0.79924790  0.09856643  0.75820479     0.09700
N368        N  0.69455122  0.04419355  0.90660570    -0.34100
N369        N  0.69572315  0.00838979  0.91024079    -0.26300
C370        C  0.68656966  0.99956612  0.94443185    -0.01500
C371        C  0.67953967  0.03157675  0.96313252     0.07100
C372        C  0.68475607  0.05921621  0.93816865     0.05200
H373        H  0.68811106  0.97220959  0.95558612     0.10300
H374        H  0.68451397  0.08819180  0.94347653     0.09100
N375        N  0.95465370  0.83111653  0.75820942    -0.25300
N376        N  0.97207531  0.81285432  0.78447227    -0.33100
C377        C  0.94779217  0.79819683  0.80678148     0.03100
C378        C  0.91367033  0.80769379  0.79371054     0.09100
C379        C  0.91930964  0.82866095  0.76291465    -0.04000
H380        H  0.95441926  0.78225206  0.83101745     0.09800
H381        H  0.89940981  0.84247692  0.74574970     0.11000
Cu382      Cu  0.02837033  0.81065061  0.78799753     0.44200
Cu383      Cu  0.97848142  0.86301934  0.71949713     0.42000
Cu384      Cu  0.07296963  0.87042521  0.72256970     0.43900
N385        N  0.08419681  0.81332233  0.78214826    -0.32600
N386        N  0.09981070  0.83390294  0.75752762    -0.26900
C387        C  0.13556346  0.83031310  0.76158321    -0.03000
C388        C  0.14313469  0.80647970  0.79031649     0.09200
C389        C  0.10990939  0.79636456  0.80271414     0.03000
H390        H  0.15448812  0.84571705  0.74611852     0.10700
H391        H  0.10484125  0.77890810  0.82588011     0.09700
N392        N  0.03962846  0.90888052  0.69672321    -0.34100
N393        N  0.00459342  0.90515384  0.69462610    -0.26300
C394        C  0.98940336  0.93653796  0.68267965    -0.01500
C395        C  0.01600728  0.96160886  0.67747849     0.07100
C396        C  0.04769742  0.94300592  0.68632126     0.05200
H397        H  0.96089928  0.94201584  0.68199919     0.10300
H398        H  0.07420711  0.95427232  0.68861574     0.09100
N399        N  0.83708819  0.74644257  0.95786382    -0.25300
N400        N  0.81274154  0.76727132  0.97347459    -0.33100
C401        C  0.79498314  0.78633753  0.94678474     0.03100
C402        C  0.80857992  0.77674702  0.91303920     0.09100
C403        C  0.83522233  0.75132929  0.92141873    -0.04000
H404        H  0.77455664  0.80677699  0.95158910     0.09800
H405        H  0.85371290  0.73910769  0.90270324     0.11000
Cu406      Cu  0.80713051  0.77014780  0.03124693     0.44200
Cu407      Cu  0.87672726  0.71717123  0.98596836     0.42000
Cu408      Cu  0.87399630  0.71774319  0.08328444     0.43900
N409        N  0.80922192  0.76668633  0.08946459    -0.32600
N410        N  0.83317961  0.74624173  0.10759318    -0.26900
C411        C  0.82979108  0.75097261  0.14374062    -0.03000
C412        C  0.80238487  0.77580757  0.14929485     0.09200
C413        C  0.78998572  0.78523220  0.11420838     0.03000
H414        H  0.84784369  0.73923958  0.16427757     0.10700
H415        H  0.76961972  0.80549874  0.10725276     0.09700
N416        N  0.91792003  0.69989661  0.05518464    -0.34100
N417        N  0.91914327  0.69980336  0.01922578    -0.26300
C418        C  0.95290951  0.69271911  0.00938474    -0.01500
C419        C  0.97390385  0.68826119  0.04084283     0.07100
C420        C  0.95077131  0.69277917  0.06926111     0.05200
H421        H  0.96178824  0.69370800  0.98155685     0.10300
H422        H  0.95786439  0.69391899  0.09802176     0.09100
C423        C  0.79344014  0.24705677  0.22942161    -0.00500
C424        C  0.80139302  0.23826250  0.79139935    -0.00500
N425        N  0.83487426  0.30021019  0.08470920    -0.25300
N426        N  0.82033441  0.27310173  0.06626047    -0.33100
C427        C  0.80393802  0.25092221  0.08988103     0.03100
C428        C  0.80814214  0.26486895  0.12475363     0.09100
C429        C  0.82796240  0.29617134  0.12033886    -0.04000
H430        H  0.79055941  0.22602351  0.08235129     0.09800
H431        H  0.83818190  0.31384742  0.14152201     0.11000
Cu432      Cu  0.82434618  0.26765971  0.00967803     0.44200
Cu433      Cu  0.86746194  0.33885269  0.06147435     0.42000
Cu434      Cu  0.86992652  0.34049493  0.96309898     0.43900
N435        N  0.82760202  0.27204604  0.95285614    -0.32600
N436        N  0.84167064  0.30020366  0.93591860    -0.26900
C437        C  0.83909699  0.29508589  0.89958012    -0.03000
C438        C  0.82311330  0.26185501  0.89334041     0.09200
C439        C  0.81649337  0.24788849  0.92767017     0.03000
H440        H  0.85023041  0.31300401  0.87936483     0.10700
H441        H  0.80491460  0.22177620  0.93389063     0.09700
N442        N  0.90702259  0.36649972  0.99652262    -0.34100
N443        N  0.90614374  0.36588334  0.03253875    -0.26300
C444        C  0.93728612  0.37845323  0.04617548    -0.01500
C445        C  0.95902681  0.38704235  0.01746764     0.07100
C446        C  0.93879636  0.37935020  0.98632187     0.05200
H447        H  0.94496690  0.37777508  0.07482635     0.10300
H448        H  0.94762298  0.37949629  0.95846632     0.09100
N449        N  0.08781105  0.22922355  0.29198048    -0.25300
N450        N  0.06870188  0.24806501  0.26730323    -0.33100
C451        C  0.09146850  0.26561861  0.24549441     0.03100
C452        C  0.12640372  0.25774871  0.25714324     0.09100
C453        C  0.12292370  0.23457215  0.28677847    -0.04000
H454        H  0.08328908  0.28169474  0.22179581     0.09800
H455        H  0.14424623  0.22039220  0.30173642     0.11000
Cu456      Cu  0.01216404  0.24665348  0.26293725     0.44200
Cu457      Cu  0.06586915  0.19114520  0.32659324     0.42000
Cu458      Cu  0.96944740  0.18148395  0.32119934     0.43900
N459        N  0.95598500  0.24135941  0.26596089    -0.32600
N460        N  0.94066003  0.21824188  0.28839385    -0.26900
C461        C  0.90482523  0.22035034  0.28350912    -0.03000
C462        C  0.89686620  0.24602570  0.25654644     0.09200
C463        C  0.93000639  0.25860131  0.24596965     0.03000
H464        H  0.88615792  0.20290047  0.29708605     0.10700
H465        H  0.93485272  0.27804716  0.22438078     0.09700
N466        N  0.00409442  0.14288616  0.34458081    -0.34100
N467        N  0.03919136  0.14647393  0.34679102    -0.26300
C468        C  0.05413542  0.11454169  0.35768680    -0.01500
C469        C  0.02725470  0.08958888  0.36239207     0.07100
C470        C  0.99580012  0.10861418  0.35403153     0.05200
H471        H  0.08262520  0.10900537  0.35897487     0.10300
H472        H  0.96911228  0.09776569  0.35185977     0.09100
N473        N  0.08975806  0.21349343  0.73104690    -0.25300
N474        N  0.07231610  0.23863002  0.74950470    -0.33100
C475        C  0.09658986  0.25882627  0.76793337     0.03100
C476        C  0.13074790  0.24580277  0.76053040     0.09100
C477        C  0.12516071  0.21705069  0.73697158    -0.04000
H478        H  0.08988496  0.28016150  0.78689242     0.09800
H479        H  0.14508968  0.19818598  0.72705763     0.11000
Cu480      Cu  0.01592277  0.24041695  0.75166727     0.44200
Cu481      Cu  0.06548013  0.17057352  0.70468183     0.42000
Cu482      Cu  0.97167903  0.15909823  0.71392768     0.43900
N483        N  0.96015403  0.23198006  0.75153672    -0.32600
N484        N  0.94488195  0.20227026  0.73846404    -0.26900
C485        C  0.90946583  0.20427163  0.74383904    -0.03000
C486        C  0.90157644  0.23687023  0.76096602     0.09200
C487        C  0.93440233  0.25381154  0.76520866     0.03000
H488        H  0.89084244  0.18341767  0.73558726     0.10700
H489        H  0.93927254  0.27980732  0.77801084     0.09700
N490        N  0.00506406  0.11851494  0.69369832    -0.34100
N491        N  0.03976147  0.12322908  0.69031151    -0.26300
C492        C  0.05531352  0.09139922  0.68146989    -0.01500
C493        C  0.02925083  0.06522219  0.67894599     0.07100
C494        C  0.99754052  0.08339150  0.68676269     0.05200
H495        H  0.08386782  0.08708745  0.67949773     0.10300
H496        H  0.97147273  0.07155145  0.68992217     0.09100
N497        N  0.29318768  0.96714661  0.20989994    -0.25300
N498        N  0.26581613  0.98412200  0.22494096    -0.33100
C499        C  0.24373677  0.95864471  0.23804916     0.03100
C500        C  0.25827317  0.92428349  0.23177187     0.09100
C501        C  0.28965104  0.93081365  0.21388186    -0.04000
H502        H  0.21820220  0.96459629  0.25005154     0.09800
H503        H  0.30691571  0.91064580  0.20168937     0.11000
Cu504      Cu  0.25866086  0.04158354  0.22553856     0.44200
Cu505      Cu  0.32962005  0.99285541  0.17700773     0.42000
Cu506      Cu  0.32721786  0.09030732  0.18008517     0.43900
N507        N  0.26156438  0.09929157  0.22466486    -0.32600
N508        N  0.28816529  0.11644298  0.20919460    -0.26900
C509        C  0.28298871  0.15270800  0.21151002    -0.03000
C510        C  0.25140276  0.15926701  0.22933407     0.09200
C511        C  0.23855274  0.12469045  0.23730258     0.03000
H512        H  0.30025937  0.17264526  0.19949313     0.10700
H513        H  0.21374493  0.11855131  0.25044366     0.09700
N514        N  0.35174488  0.06148719  0.13945569    -0.34100
N515        N  0.35209881  0.02555690  0.13753187    -0.26300
C516        C  0.36181412  0.01574639  0.10383511    -0.01500
C517        C  0.36768345  0.04721141  0.08366324     0.07100
C518        C  0.36131632  0.07550821  0.10729228     0.05200
H519        H  0.36085868  0.98811311  0.09383841     0.10300
H520        H  0.35964410  0.10420061  0.10031301     0.09100
N521        N  0.74705066  0.94829421  0.20937961    -0.25300
N522        N  0.76924806  0.96679905  0.23069876    -0.33100
C523        C  0.78951356  0.94279141  0.25046712     0.03100
C524        C  0.77937855  0.90769566  0.24135770     0.09100
C525        C  0.75232995  0.91235602  0.21523826    -0.04000
H526        H  0.81099404  0.95026890  0.26912760     0.09800
H527        H  0.73909157  0.89127082  0.19972678     0.11000
Cu528      Cu  0.77254658  0.02405577  0.22991268     0.44200
Cu529      Cu  0.71486953  0.97150262  0.16844834     0.42000
Cu530      Cu  0.71785682  0.06879481  0.15948839     0.43900
N531        N  0.76886761  0.08105737  0.22315387    -0.32600
N532        N  0.74790983  0.09693923  0.19796889    -0.26900
C533        C  0.75169528  0.13331464  0.19964833    -0.03000
C534        C  0.77636386  0.14107316  0.22718908     0.09200
C535        C  0.78678612  0.10723059  0.24139653     0.03000
H536        H  0.73864842  0.15247600  0.18093906     0.10700
H537        H  0.80659447  0.10202299  0.26287712     0.09700
N538        N  0.69565562  0.03542138  0.11986666    -0.34100
N539        N  0.69422156  0.99961238  0.12332213    -0.26300
C540        C  0.68358259  0.98533537  0.09124425    -0.01500
C541        C  0.67836349  0.01341896  0.06625604     0.07100
C542        C  0.68604393  0.04491104  0.08546809     0.05200
H543        H  0.68288838  0.95644034  0.08561929     0.10300
H544        H  0.68752917  0.07235519  0.07471768     0.09100
N545        N  0.19359421  0.31643500  0.92967613    -0.25300
N546        N  0.21511342  0.29501322  0.94972147    -0.33100
C547        C  0.23398315  0.27358380  0.92743118     0.03100
C548        C  0.22411009  0.28194439  0.89169784     0.09100
C549        C  0.19838555  0.30927710  0.89410487    -0.04000
H550        H  0.25224993  0.25210879  0.93662145     0.09800
H551        H  0.18248355  0.32120436  0.87192367     0.11000
Cu552      Cu  0.21538216  0.29255345  0.00660274     0.44200
Cu553      Cu  0.15474994  0.35003686  0.95178746     0.42000
Cu554      Cu  0.15067329  0.34894848  0.05098614     0.43900
N555        N  0.20975408  0.29328311  0.06306723    -0.32600
N556        N  0.18644637  0.31465802  0.07938261    -0.26900
C557        C  0.18863770  0.30841428  0.11562074    -0.03000
C558        C  0.21462450  0.28172826  0.12253030     0.09200
C559        C  0.22727027  0.27270371  0.08852680     0.03000
H560        H  0.17171393  0.32153209  0.13524855     0.10700
H561        H  0.24753663  0.25240254  0.08269679     0.09700
N562        N  0.11207318  0.37322679  0.01668808    -0.34100
N563        N  0.11334669  0.37341313  0.98067058    -0.26300
C564        C  0.08132589  0.38438828  0.96675905    -0.01500
C565        C  0.05865446  0.39108065  0.99526438     0.07100
C566        C  0.07926779  0.38411222  0.02656884     0.05200
H567        H  0.07396251  0.38380436  0.93804111     0.10300
H568        H  0.07025899  0.38323652  0.05434585     0.09100
N569        N  0.21839961  0.74235977  0.95644672    -0.25300
N570        N  0.24205828  0.76227765  0.97451456    -0.33100
C571        C  0.26094989  0.78124576  0.95022398     0.03100
C572        C  0.24871850  0.77278933  0.91535802     0.09100
C573        C  0.22186226  0.74787406  0.92040468    -0.04000
H574        H  0.28012113  0.80193921  0.95746352     0.09800
H575        H  0.20353262  0.73759896  0.89974660     0.11000
Cu576      Cu  0.24354917  0.76844888  0.03124973     0.44200
Cu577      Cu  0.17595368  0.71658486  0.98019244     0.42000
Cu578      Cu  0.16542203  0.73447389  0.07504164     0.43900
N579        N  0.23468645  0.77419857  0.08703354    -0.32600
N580        N  0.20543756  0.76211262  0.10229282    -0.26900
C581        C  0.20583354  0.77112569  0.13767635    -0.03000
C582        C  0.23690198  0.78983984  0.14542642     0.09200
C583        C  0.25481378  0.79099125  0.11277063     0.03000
H584        H  0.18506069  0.76411329  0.15639100     0.10700
H585        H  0.28023800  0.80364257  0.10795269     0.09700
N586        N  0.12618343  0.71130293  0.04265477    -0.34100
N587        N  0.12985360  0.70475547  0.00757695    -0.26300
C588        C  0.09829418  0.69401610  0.99329414    -0.01500
C589        C  0.07370158  0.69355847  0.02080542     0.07100
C590        C  0.09235405  0.70467672  0.05179125     0.05200
H591        H  0.09314713  0.68888738  0.96463075     0.10300
H592        H  0.08178232  0.70997910  0.07844661     0.09100
C593        C  0.99796112  0.39329534  0.02078024    -0.14400
C594        C  0.01923557  0.39441856  0.99175686    -0.29600
H595        H  0.00964132  0.39358534  0.04815573     0.14600
H596        H  0.00755533  0.39424310  0.96437358     0.15200
C597        C  0.80643652  0.25896355  0.82737750    -0.14400
C598        C  0.81886545  0.24249077  0.85832003    -0.29600
H599        H  0.79921082  0.28775338  0.82822472     0.14600
H600        H  0.82434354  0.21334314  0.85846375     0.15200
C601        C  0.83861500  0.22736208  0.77778232    -0.14400
C602        C  0.86589333  0.25043992  0.77271457    -0.29600
H603        H  0.84436030  0.19859319  0.77406099     0.14600
H604        H  0.86242500  0.27920025  0.77865438     0.15200
C605        C  0.82947410  0.24502434  0.25132136    -0.14400
C606        C  0.86181631  0.25409970  0.23787456    -0.29600
H607        H  0.82886727  0.23373763  0.27877193     0.14600
H608        H  0.86359144  0.26670448  0.21118181     0.15200
C609        C  0.79717573  0.24732236  0.15924578    -0.14400
C610        C  0.79930667  0.26449313  0.19174816    -0.29600
H611        H  0.78857302  0.21927230  0.15754860     0.14600
H612        H  0.80779203  0.29270061  0.19200308     0.15200
C613        C  0.79183970  0.17702104  0.23662845    -0.14400
C614        C  0.77687646  0.20904404  0.22499943    -0.29600
H615        H  0.81664964  0.17653265  0.25253970     0.14600
H616        H  0.75138218  0.20829393  0.21018214     0.15200
C617        C  0.01320268  0.68702435  0.04475901    -0.14400
C618        C  0.03484064  0.68833710  0.01613546    -0.29600
H619        H  0.02447352  0.68729278  0.07231968     0.14600
H620        H  0.02382378  0.68728840  0.98850819     0.15200
C621        C  0.00971052  0.00131895  0.67331984    -0.14400
C622        C  0.03612828  0.02560140  0.67588551    -0.29600
H623        H  0.98214176  0.01081882  0.67082696     0.14600
H624        H  0.06376651  0.01626750  0.67779107     0.15200
C625        C  0.67583662  0.03680538  0.00277485    -0.14400
C626        C  0.67410395  0.00877532  0.02638429    -0.29600
H627        H  0.67719474  0.06451696  0.01280267     0.14600
H628        H  0.67238170  0.98111726  0.01626907     0.15200
C629        C  0.77916718  0.17460584  0.77569539    -0.14400
C630        C  0.78008690  0.20348200  0.79845526    -0.29600
H631        H  0.79190004  0.17614839  0.74945409     0.14600
H632        H  0.76819169  0.20047777  0.82502176     0.15200
C633        C  0.81168224  0.78082719  0.84477754    -0.14400
C634        C  0.80052923  0.79462163  0.87697451    -0.29600
H635        H  0.82476886  0.75420367  0.84519812     0.14600
H636        H  0.78641902  0.82058746  0.87767052     0.15200
C637        C  0.84732617  0.80660120  0.79283810    -0.14400
C638        C  0.87889969  0.79916042  0.81040202    -0.29600
H639        H  0.84801896  0.81803433  0.76546258     0.14600
H640        H  0.87970714  0.78703052  0.83747200     0.15200
C641        C  0.78915516  0.83742335  0.80977105    -0.14400
C642        C  0.80256841  0.87057616  0.80153592    -0.29600
H643        H  0.76201864  0.83644928  0.81957929     0.14600
H644        H  0.82885499  0.87300980  0.79009558     0.15200
C645        C  0.36940063  0.02323935  0.02084249    -0.14400
C646        C  0.36968088  0.05158211  0.04370668    -0.29600
H647        H  0.37161223  0.99562595  0.03157686     0.14600
H648        H  0.36798471  0.07917167  0.03286019     0.15200
C649        C  0.25745007  0.84549554  0.82227875    -0.14400
C650        C  0.23769701  0.87605146  0.81585718    -0.29600
H651        H  0.28414619  0.84834657  0.83417560     0.14600
H652        H  0.21152047  0.87511664  0.80255434     0.15200
C653        C  0.24577021  0.78272437  0.84808031    -0.14400
C654        C  0.25586763  0.79386258  0.88187755    -0.29600
H655        H  0.23558511  0.75529553  0.84505929     0.14600
H656        H  0.26822876  0.82004684  0.88605739     0.15200
C657        C  0.20984062  0.80691462  0.79303742    -0.14400
C658        C  0.17842254  0.79808838  0.80816730    -0.29600
H659        H  0.20921364  0.81889079  0.76582459     0.14600
H660        H  0.17799910  0.78642099  0.83542321     0.15200
C661        C  0.03257259  0.04981518  0.36700304    -0.14400
C662        C  0.00515711  0.02654103  0.36701519    -0.29600
H663        H  0.05988944  0.03945409  0.36785653     0.14600
H664        H  0.97785351  0.03692330  0.36661535     0.15200
C665        C  0.83932300  0.80805705  0.27113359    -0.14400
C666        C  0.87108834  0.79925778  0.25601911    -0.29600
H667        H  0.84012968  0.82172824  0.29732452     0.14600
H668        H  0.87192640  0.78468288  0.23044274     0.15200
C669        C  0.78304207  0.84012033  0.24712734    -0.14400
C670        C  0.79773992  0.87321116  0.25276014    -0.29600
H671        H  0.75574905  0.83929199  0.23631570     0.14600
H672        H  0.82426311  0.87565158  0.26498972     0.15200
C673        C  0.79329252  0.79421262  0.18408773    -0.14400
C674        C  0.80386629  0.78146651  0.21771175    -0.29600
H675        H  0.77909640  0.82003841  0.18114335     0.14600
H676        H  0.81672688  0.75475976  0.21946183     0.15200
C677        C  0.25627057  0.85720686  0.24497690    -0.14400
C678        C  0.23972021  0.88904469  0.23531139    -0.29600
H679        H  0.28474886  0.85717179  0.25164587     0.14600
H680        H  0.21097192  0.88951773  0.23036102     0.15200
C681        C  0.20194073  0.82693449  0.26934297    -0.14400
C682        C  0.17273446  0.80552804  0.26720588    -0.29600
H683        H  0.19984832  0.85212636  0.28452839     0.14600
H684        H  0.17393694  0.78034362  0.25189277     0.15200
C685        C  0.22498876  0.81101331  0.20759377    -0.14400
C686        C  0.24870826  0.80423668  0.18129192    -0.29600
H687        H  0.19676851  0.80876306  0.20052398     0.14600
H688        H  0.27705117  0.80843210  0.18653462     0.15200
C689        C  0.22793369  0.27164490  0.82463687    -0.14400
C690        C  0.23405004  0.26041287  0.85952355    -0.29600
H691        H  0.21764023  0.29917472  0.81999306     0.14600
H692        H  0.24563664  0.23377833  0.86563863     0.15200
C693        C  0.23158967  0.17754402  0.79789151    -0.14400
C694        C  0.24779952  0.20987083  0.80235952    -0.29600
H695        H  0.20620681  0.17566868  0.78315610     0.14600
H696        H  0.27392719  0.20981266  0.81605531     0.15200
C697        C  0.19729374  0.24377501  0.76882830    -0.14400
C698        C  0.16477782  0.25596413  0.77945295    -0.29600
H699        H  0.19866863  0.22825071  0.74377372     0.14600
H700        H  0.16230141  0.27227155  0.80380359     0.15200
C701        C  0.21840895  0.28041266  0.19019000    -0.14400
C702        C  0.22557504  0.26460313  0.15797190    -0.29600
H703        H  0.20531265  0.30705718  0.18948467     0.14600
H704        H  0.24010709  0.23887195  0.15704634     0.15200
C705        C  0.24698041  0.22760953  0.22610387    -0.14400
C706        C  0.23305800  0.19493918  0.23561265    -0.29600
H707        H  0.27321045  0.22788464  0.21408974     0.14600
H708        H  0.20670168  0.19366945  0.24715570     0.15200
C709        C  0.15929571  0.26687466  0.23720175    -0.14400
C710        C  0.19312801  0.26168340  0.25087800    -0.29600
H711        H  0.15474251  0.27669255  0.20951558     0.14600
H712        H  0.19649292  0.25236934  0.27896623     0.15200
C713        C  0.27345299  0.75849446  0.77250836    -0.14400
C714        C  0.27500218  0.79142100  0.78829669    -0.29600
H715        H  0.25041637  0.74164135  0.77769517     0.14600
H716        H  0.29785752  0.80828578  0.78225360     0.15200
C717        C  0.29083083  0.70795972  0.73185669    -0.14400
C718        C  0.28514210  0.67902838  0.75366710    -0.29600
H719        H  0.28635520  0.70501792  0.70265309     0.14600
H720        H  0.29141582  0.68041798  0.78271319     0.15200
C721        C  0.30575163  0.77215599  0.71506498    -0.14400
C722        C  0.28188750  0.77607107  0.68702353    -0.29600
H723        H  0.33079747  0.78660573  0.71362046     0.14600
H724        H  0.25688685  0.76138228  0.68745277     0.15200
C725        C  0.53383929  0.86574659  0.52015875    -0.14400
C726        C  0.51257796  0.86550047  0.54917616    -0.29600
H727        H  0.52205346  0.86567364  0.49281757     0.14600
H728        H  0.52415561  0.86612642  0.57659585     0.15200
C729        C  0.33854027  0.73978462  0.76626506    -0.14400
C730        C  0.36864016  0.73241529  0.74773851    -0.29600
H731        H  0.34023560  0.74196985  0.79581187     0.14600
H732        H  0.36752769  0.73203932  0.71810957     0.15200
C733        C  0.75621972  0.76555092  0.78167761    -0.14400
C734        C  0.79037751  0.77646019  0.77905110    -0.29600
H735        H  0.74182760  0.77418546  0.80561797     0.14600
H736        H  0.80481550  0.76782113  0.75514593     0.15200
C737        C  0.73446201  0.76170659  0.71596820    -0.14400
C738        C  0.74431886  0.74738077  0.68354013    -0.29600
H739        H  0.72207048  0.78865400  0.71582221     0.14600
H740        H  0.75738204  0.72086640  0.68264375     0.15200
C741        C  0.75705269  0.70484916  0.75018240    -0.14400
C742        C  0.74272156  0.67156765  0.75577590    -0.29600
H743        H  0.78450926  0.70592671  0.74130868     0.14600
H744        H  0.71569754  0.66903826  0.76535180     0.15200
C745        C  0.69924067  0.73563505  0.76815187    -0.14400
C746        C  0.66751231  0.74467222  0.75171741    -0.29600
H747        H  0.69882595  0.72256985  0.79482253     0.14600
H748        H  0.66636848  0.75906859  0.72577678     0.15200
C749        C  0.25897148  0.29814450  0.75156358    -0.14400
C750        C  0.26085993  0.26432280  0.76634489    -0.29600
H751        H  0.23555301  0.31512514  0.75641902     0.14600
H752        H  0.28465577  0.24808571  0.76072356     0.15200
C753        C  0.26967352  0.28893430  0.66620934    -0.14400
C754        C  0.29329229  0.28886162  0.69477227    -0.29600
H755        H  0.24542958  0.30549524  0.66720495     0.14600
H756        H  0.31785494  0.27300935  0.69266670     0.15200
C757        C  0.28039556  0.35197462  0.71598245    -0.14400
C758        C  0.27506403  0.37969534  0.73915794    -0.29600
H759        H  0.27844430  0.35777535  0.68691334     0.14600
H760        H  0.27873076  0.37529537  0.76834365     0.15200
C761        C  0.50330823  0.50665549  0.88287127    -0.14400
C762        C  0.53195045  0.52825093  0.88095210    -0.29600
H763        H  0.47673221  0.51872102  0.88414813     0.14600
H764        H  0.55856897  0.51625372  0.87985619     0.15200
C765        C  0.32456243  0.31332538  0.75092608    -0.14400
C766        C  0.35671548  0.31889971  0.73581336    -0.29600
H767        H  0.32370455  0.30877259  0.78022936     0.14600
H768        H  0.35834072  0.32165487  0.70639798     0.15200
C769        C  0.51184420  0.17784534  0.50665398    -0.14400
C770        C  0.48872933  0.17623984  0.53402624    -0.29600
H771        H  0.50206011  0.17836843  0.47853941     0.14600
H772        H  0.49863204  0.17467310  0.56208591     0.15200
C773        C  0.78037829  0.26242542  0.76353211    -0.14400
C774        C  0.74662914  0.27480788  0.76994036    -0.29600
H775        H  0.79289193  0.26998765  0.73820258     0.14600
H776        H  0.73480624  0.26636897  0.79541117     0.15200
C777        C  0.71844776  0.28139244  0.70745279    -0.14400
C778        C  0.72576549  0.29602881  0.67450390    -0.29600
H779        H  0.70557627  0.25501399  0.70808220     0.14600
H780        H  0.73983438  0.32156274  0.67245477     0.15200
C781        C  0.68765215  0.30686351  0.76260407    -0.14400
C782        C  0.65488798  0.30068642  0.74721148    -0.29600
H783        H  0.68874242  0.31817160  0.78991187     0.14600
H784        H  0.65242701  0.28877054  0.72032407     0.15200
C785        C  0.74426455  0.33641535  0.74026691    -0.14400
C786        C  0.73145078  0.36993951  0.74888962    -0.29600
H787        H  0.77056713  0.33461556  0.72845217     0.14600
H788        H  0.70591534  0.37313164  0.76189245     0.15200
C789        C  0.76645684  0.27185275  0.24897028    -0.14400
C790        C  0.75254804  0.26403440  0.28181339    -0.29600
H791        H  0.75750437  0.29701033  0.23554045     0.14600
H792        H  0.76147255  0.23883751  0.29519790     0.15200
C793        C  0.69023227  0.29270137  0.28018290    -0.14400
C794        C  0.65733308  0.28577615  0.29357413    -0.29600
H795        H  0.69145522  0.30426080  0.25288064     0.14600
H796        H  0.65470924  0.27313746  0.32016164     0.15200
C797        C  0.72055647  0.27149065  0.33943616    -0.14400
C798        C  0.72900104  0.28634293  0.37218807    -0.29600
H799        H  0.70878691  0.24457400  0.33914668     0.14600
H800        H  0.74217324  0.31240545  0.37402170     0.15200
C801        C  0.85470569  0.49849606  0.52101840    -0.14400
C802        C  0.85737986  0.52723975  0.54338023    -0.29600
H803        H  0.85523114  0.47106069  0.53229013     0.14600
H804        H  0.85739876  0.55468508  0.53213727     0.15200
C805        C  0.72764565  0.35944682  0.29848421    -0.14400
C806        C  0.74352042  0.32681676  0.30653824    -0.29600
H807        H  0.70179244  0.36096189  0.28449446     0.14600
H808        H  0.76996927  0.32679665  0.31949084     0.15200
C809        C  0.49690007  0.54151211  0.17971751    -0.14400
C810        C  0.52465524  0.51787214  0.17946482    -0.29600
H811        H  0.46975574  0.53146614  0.17860146     0.14600
H812        H  0.55181595  0.52789617  0.18029821     0.15200
C813        C  0.75858690  0.75355419  0.27764566    -0.14400
C814        C  0.77895765  0.78355402  0.28293885    -0.29600
H815        H  0.75885143  0.74072592  0.25106167     0.14600
H816        H  0.77850833  0.79657992  0.30941278     0.15200
C817        C  0.69650643  0.73355905  0.28859319    -0.14400
C818        C  0.66557799  0.74493503  0.30384060    -0.29600
H819        H  0.69455398  0.72069826  0.26202895     0.14600
H820        H  0.66601821  0.75897797  0.32974621     0.15200
C821        C  0.75014228  0.69641036  0.31194841    -0.14400
C822        C  0.73335736  0.66480348  0.30406021    -0.29600
H823        H  0.77703937  0.69468361  0.32381412     0.14600
H824        H  0.70735384  0.66489095  0.29037144     0.15200
C825        C  0.73364619  0.75578937  0.34286840    -0.14400
C826        C  0.74183811  0.74118117  0.37636037    -0.29600
H827        H  0.72355793  0.78369259  0.34163634     0.14600
H828        H  0.75290766  0.71381490  0.37892286     0.15200
C829        C  0.15967232  0.52680887  0.49556116    -0.14400
C830        C  0.16283140  0.55466912  0.51891028    -0.29600
H831        H  0.16052033  0.49898457  0.50582772     0.14600
H832        H  0.16151477  0.58255967  0.50885652     0.15200
C833        C  0.25931891  0.79030402  0.26340430    -0.14400
C834        C  0.27354791  0.79148682  0.29760752    -0.29600
H835        H  0.26485082  0.76630991  0.24715230     0.14600
H836        H  0.26737021  0.81550621  0.31364632     0.15200
C837        C  0.27745726  0.72473092  0.31476181    -0.14400
C838        C  0.29426252  0.69195087  0.31903365    -0.29600
H839        H  0.24855362  0.72536618  0.31083831     0.14600
H840        H  0.32324172  0.69072801  0.32130773     0.15200
C841        C  0.33223144  0.75706171  0.29354334    -0.14400
C842        C  0.36582852  0.76263219  0.30731840    -0.29600
H843        H  0.32942331  0.74703956  0.26582473     0.14600
H844        H  0.36996215  0.77367682  0.33436403     0.14400
C845        C  0.30548129  0.77381378  0.35427153    -0.14400
C846        C  0.29385783  0.75859867  0.38539725    -0.29600
H847        H  0.32051328  0.79886854  0.35664074     0.14600
H848        H  0.27570696  0.73579896  0.38476530     0.15200
C849        C  0.26887987  0.28878107  0.27987331    -0.14400
C850        C  0.25300331  0.29262017  0.24646583    -0.29600
H851        H  0.26326724  0.26442640  0.29567342     0.14600
H852        H  0.25929969  0.31710475  0.23109904     0.15200
C853        C  0.30528845  0.30574592  0.33531934    -0.14400
C854        C  0.28185001  0.30147875  0.36239668    -0.29600
H855        H  0.33339311  0.30055854  0.34171294     0.14600
H856        H  0.25384651  0.30864276  0.35766007     0.15200
C857        C  0.27490193  0.35486503  0.29872513    -0.14400
C858        C  0.29235137  0.38583687  0.30769564    -0.29600
H859        H  0.24630087  0.35645002  0.29281554     0.14600
H860        H  0.32117834  0.38490588  0.31198590     0.15200
C861        C  0.32752478  0.32179263  0.27287656    -0.14400
C862        C  0.35619033  0.29875940  0.27400049    -0.29600
H863        H  0.32996705  0.34719589  0.25783926     0.14600
H864        H  0.35469540  0.27327872  0.28909257     0.15200
loop_ 
_geom_bond_atom_site_label_1 
_geom_bond_atom_site_label_2 
_geom_bond_distance 
_geom_bond_site_symmetry_2 
_ccdc_geom_bond_type 
C1          C849   1.544       .  S
C1          C853   1.534       .  S
C1          C857   1.541       .  S
C1          C861   1.545       .  S
C2          C834   1.541       .  S
C2          C837   1.542       .  S
C2          C841   1.549       .  S
C2          C845   1.534       .  S
N3            N4   1.323       .  A
N3            C7   1.346       .  A
N3          Cu11   2.063       .  S
N4            C5   1.352       .  A
N4          Cu10   2.124       .  S
C5            C6   1.392       .  A
C5            H8   1.082       .  S
C6            C7   1.381       .  A
C6          C858   1.485       .  S
C7            H9   1.082       .  S
Cu10         N13   2.124       .  S
Cu11         N21   2.063       .  S
Cu12         N14   2.073       .  S
Cu12         N20   2.072       .  S
N13          N14   1.325       .  A
N13          C17   1.351       .  A
N14          C15   1.348       .  A
C15          C16   1.383       .  A
C15          H18   1.082       .  S
C16          C17   1.391       .  A
C16         C838   1.488       .  S
C17          H19   1.082       .  S
N20          N21   1.321       .  A
N20          C24   1.346       .  A
N21          C22   1.343       .  A
C22          C23   1.381       .  A
C22          H25   1.082       .  S
C23          C24   1.388       .  A
C23         C829   1.477       .  S
C24          H26   1.081       .  S
C27         C813   1.549       .  S
C27         C817   1.548       .  S
C27         C821   1.541       .  S
C27         C825   1.554       .  S
N28          N29   1.324       .  A
N28          C32   1.347       .  A
N28         Cu36   2.076       .  S
N29          C30   1.353       .  A
N29         Cu35   2.125       .  S
C30          C31   1.394       .  A
C30          H33   1.082       .  S
C31          C32   1.385       .  A
C31         C818   1.494       .  S
C32          H34   1.082       .  S
Cu35         N38   2.125       .  S
Cu36         N46   2.076       .  S
Cu37         N39   2.070       .  S
Cu37         N45   2.070       .  S
N38          N39   1.324       .  A
N38          C42   1.351       .  A
N39          C40   1.348       .  A
C40          C41   1.383       .  A
C40          H43   1.082       .  S
C41          C42   1.392       .  A
C41         C842   1.488       .  S
C42          H44   1.082       .  S
N45          N46   1.321       .  A
N45          C49   1.344       .  A
N46          C47   1.346       .  A
C47          C48   1.388       .  A
C47          H50   1.081       .  S
C48          C49   1.382       .  A
C48         C809   1.479       .  S
C49          H51   1.082       .  S
N52          N53   1.324       .  A
N52          C56   1.346       .  A
N52         Cu60   2.074       .  S
N53          C54   1.350       .  A
N53         Cu59   2.111       .  S
C54          C55   1.389       .  A
C54          H57   1.082       .  S
C55          C56   1.383       .  A
C55         C822   1.485       .  S
C56          H58   1.082       .  S
Cu59         N62   2.111       .  S
Cu60         N70   2.074       .  S
Cu61         N63   2.067       .  S
Cu61         N69   2.066       .  S
N62          N63   1.323       .  A
N62          C66   1.352       .  A
N63          C64   1.344       .  A
C64          C65   1.383       .  A
C64          H67   1.082       .  S
C65          C66   1.391       .  A
C65         C805   1.486       .  S
C66          H68   1.082       .  S
N69          N70   1.320       .  A
N69          C73   1.343       .  A
N70          C71   1.346       .  A
C71          C72   1.388       .  A
C71          H74   1.081       .  S
C72          C73   1.382       .  A
C72         C801   1.478       .  S
C73          H75   1.082       .  S
C76         C790   1.543       .  S
C76         C793   1.551       .  S
C76         C797   1.540       .  S
C76         C806   1.541       .  S
N77          N78   1.324       .  A
N77          C81   1.347       .  A
N77         Cu85   2.074       .  S
N78          C79   1.353       .  A
N78         Cu84   2.131       .  S
C79          C80   1.394       .  A
C79          H82   1.082       .  S
C80          C81   1.386       .  A
C80         C862   1.496       .  S
C81          H83   1.081       .  S
Cu84         N87   2.132       .  S
Cu85         N95   2.073       .  S
Cu86         N88   2.072       .  S
Cu86         N94   2.072       .  S
N87          N88   1.324       .  A
N87          C91   1.354       .  A
N88          C89   1.347       .  A
C89          C90   1.383       .  A
C89          H92   1.082       .  S
C90          C91   1.395       .  A
C90         C794   1.493       .  S
C91          H93   1.082       .  S
N94          N95   1.321       .  A
N94          C98   1.345       .  A
N95          C96   1.345       .  A
C96          C97   1.388       .  A
C96          H99   1.081       .  S
C97          C98   1.383       .  A
C97         C810   1.480       .  S
C98         H100   1.082       .  S
C101        C774   1.540       .  S
C101        C777   1.540       .  S
C101        C781   1.551       .  S
C101        C785   1.544       .  S
N102        N103   1.323       .  A
N102        C106   1.347       .  A
N102       Cu110   2.079       .  S
N103        C104   1.349       .  A
N103       Cu109   2.099       .  S
C104        C105   1.387       .  A
C104        H107   1.082       .  S
C105        C106   1.385       .  A
C105        C778   1.484       .  S
C106        H108   1.082       .  S
Cu109       N112   2.098       .  S
Cu110       N120   2.078       .  S
Cu111       N113   2.062       .  S
Cu111       N119   2.062       .  S
N112        N113   1.323       .  A
N112        C116   1.348       .  A
N113        C114   1.344       .  A
C114        C115   1.383       .  A
C114        H117   1.082       .  S
C115        C116   1.387       .  A
C115        C798   1.481       .  S
C116        H118   1.082       .  S
N119        N120   1.321       .  A
N119        C123   1.344       .  A
N120        C121   1.345       .  A
C121        C122   1.387       .  A
C121        H124   1.081       .  S
C122        C123   1.380       .  A
C122        C769   1.475       .  S
C123        H125   1.082       .  S
N126        N127   1.324       .  A
N126        C130   1.348       .  A
N126       Cu134   2.076       .  S
N127        C128   1.351       .  A
N127       Cu133   2.118       .  S
C128        C129   1.391       .  A
C128        H131   1.082       .  S
C129        C130   1.386       .  A
C129        C782   1.491       .  S
C130        H132   1.082       .  S
Cu133       N136   2.118       .  S
Cu134       N144   2.075       .  S
Cu135       N137   2.075       .  S
Cu135       N143   2.076       .  S
N136        N137   1.324       .  A
N136        C140   1.351       .  A
N137        C138   1.348       .  A
C138        C139   1.383       .  A
C138        H141   1.082       .  S
C139        C140   1.390       .  A
C139        C766   1.485       .  S
C140        H142   1.082       .  S
N143        N144   1.322       .  A
N143        C147   1.345       .  A
N144        C145   1.346       .  A
C145        C146   1.388       .  A
C145        H148   1.081       .  S
C146        C147   1.383       .  A
C146        C761   1.480       .  S
C147        H149   1.082       .  S
C150        C749   1.535       .  S
C150        C754   1.534       .  S
C150        C757   1.527       .  S
C150        C765   1.541       .  S
N151        N152   1.324       .  A
N151        C155   1.344       .  A
N151       Cu159   2.068       .  S
N152        C153   1.351       .  A
N152       Cu158   2.106       .  S
C153        C154   1.388       .  A
C153        H156   1.082       .  S
C154        C155   1.383       .  A
C154        C854   1.484       .  S
C155        H157   1.082       .  S
Cu158       N161   2.107       .  S
Cu159       N169   2.066       .  S
Cu160       N162   2.062       .  S
Cu160       N168   2.062       .  S
N161        N162   1.323       .  A
N161        C165   1.351       .  A
N162        C163   1.342       .  A
C163        C164   1.381       .  A
C163        H166   1.081       .  S
C164        C165   1.390       .  A
C164        C753   1.483       .  S
C165        H167   1.082       .  S
N168        N169   1.319       .  A
N168        C172   1.344       .  A
N169        C170   1.343       .  A
C170        C171   1.387       .  A
C170        H173   1.081       .  S
C171        C172   1.382       .  A
C171        C770   1.476       .  S
C172        H174   1.082       .  S
C175        C733   1.541       .  S
C175        C737   1.547       .  S
C175        C741   1.547       .  S
C175        C745   1.538       .  S
N176        N177   1.325       .  A
N176        C180   1.347       .  A
N176       Cu184   2.077       .  S
N177        C178   1.349       .  A
N177       Cu183   2.107       .  S
C178        C179   1.388       .  A
C178        H181   1.082       .  S
C179        C180   1.381       .  A
C179        C730   1.478       .  S
C180        H182   1.082       .  S
Cu183       N186   2.106       .  S
Cu184       N194   2.077       .  S
Cu185       N187   2.065       .  S
Cu185       N193   2.065       .  S
N186        N187   1.323       .  A
N186        C190   1.352       .  A
N187        C188   1.342       .  A
C188        C189   1.384       .  A
C188        H191   1.081       .  S
C189        C190   1.390       .  A
C189        C746   1.487       .  S
C190        H192   1.082       .  S
N193        N194   1.320       .  A
N193        C197   1.345       .  A
N194        C195   1.345       .  A
C195        C196   1.389       .  A
C195        H198   1.081       .  S
C196        C197   1.383       .  A
C196        C762   1.480       .  S
C197        H199   1.082       .  S
N200        N201   1.324       .  A
N200        C204   1.348       .  A
N200       Cu208   2.076       .  S
N201        C202   1.348       .  A
N201       Cu207   2.105       .  S
C202        C203   1.387       .  A
C202        H205   1.082       .  S
C203        C204   1.385       .  A
C203        C742   1.485       .  S
C204        H206   1.082       .  S
Cu207       N210   2.104       .  S
Cu208       N218   2.075       .  S
Cu209       N211   2.071       .  S
Cu209       N217   2.072       .  S
N210        N211   1.322       .  A
N210        C214   1.350       .  A
N211        C212   1.347       .  A
C212        C213   1.385       .  A
C212        H215   1.082       .  S
C213        C214   1.389       .  A
C213        C786   1.486       .  S
C214        H216   1.082       .  S
N217        N218   1.322       .  A
N217        C221   1.344       .  A
N218        C219   1.346       .  A
C219        C220   1.383       .  A
C219        H222   1.082       .  S
C220        C221   1.387       .  A
C220        C802   1.480       .  S
C221        H223   1.081       .  S
N224        N225   1.323       .  A
N224        C228   1.348       .  A
N224       Cu232   2.070       .  S
N225        C226   1.353       .  A
N225       Cu231   2.131       .  S
C226        C227   1.395       .  A
C226        H229   1.082       .  S
C227        C228   1.384       .  A
C227        C826   1.493       .  S
C228        H230   1.082       .  S
Cu231       N234   2.132       .  S
Cu232       N242   2.070       .  S
Cu233       N235   2.072       .  S
Cu233       N241   2.072       .  S
N234        N235   1.325       .  A
N234        C238   1.353       .  A
N235        C236   1.347       .  A
C236        C237   1.384       .  A
C236        H239   1.082       .  S
C237        C238   1.394       .  A
C237        C738   1.493       .  S
C238        H240   1.082       .  S
N241        N242   1.321       .  A
N241        C245   1.347       .  A
N242        C243   1.343       .  A
C243        C244   1.382       .  A
C243        H246   1.082       .  S
C244        C245   1.387       .  A
C244        C725   1.477       .  S
C245        H247   1.081       .  S
C248        C713   1.531       .  S
C248        C717   1.521       .  S
C248        C721   1.534       .  S
C248        C729   1.536       .  S
N249        N250   1.323       .  A
N249        C253   1.340       .  A
N249       Cu257   2.060       .  S
N250        C251   1.348       .  A
N250       Cu256   2.079       .  S
C251        C252   1.383       .  A
C251        H254   1.082       .  S
C252        C253   1.381       .  A
C252        C718   1.473       .  S
C253        H255   1.082       .  S
Cu256       N259   2.080       .  S
Cu257       N267   2.059       .  S
Cu258       N260   2.076       .  S
Cu258       N266   2.075       .  S
N259        N260   1.323       .  A
N259        C263   1.348       .  A
N260        C261   1.343       .  A
C261        C262   1.385       .  A
C261        H264   1.082       .  S
C262        C263   1.383       .  A
C262        C758   1.480       .  S
C263        H265   1.082       .  S
N266        N267   1.319       .  A
N266        C270   1.344       .  A
N267        C268   1.344       .  A
C268        C269   1.382       .  A
C268        H271   1.082       .  S
C269        C270   1.388       .  A
C269        C830   1.478       .  S
C270        H272   1.081       .  S
N273        N274   1.324       .  A
N273        C277   1.342       .  A
N273       Cu281   2.072       .  S
N274        C275   1.350       .  A
N274       Cu280   2.098       .  S
C275        C276   1.388       .  A
C275        H278   1.082       .  S
C276        C277   1.385       .  A
C276        C722   1.484       .  S
C277        H279   1.081       .  S
Cu280       N283   2.098       .  S
Cu281       N291   2.072       .  S
Cu282       N284   2.066       .  S
Cu282       N290   2.066       .  S
N283        N284   1.323       .  A
N283        C287   1.351       .  A
N284        C285   1.341       .  A
C285        C286   1.382       .  A
C285        H288   1.082       .  S
C286        C287   1.388       .  A
C286        C846   1.483       .  S
C287        H289   1.082       .  S
N290        N291   1.319       .  A
N290        C294   1.343       .  A
N291        C292   1.346       .  A
C292        C293   1.385       .  A
C292        H295   1.082       .  S
C293        C294   1.387       .  A
C293        C726   1.480       .  S
C294        H296   1.081       .  S
C297        C701   1.541       .  S
C297        C705   1.545       .  S
C297        C710   1.549       .  S
C297        C850   1.543       .  S
C298        C689   1.542       .  S
C298        C694   1.539       .  S
C298        C697   1.542       .  S
C298        C750   1.531       .  S
C299        C677   1.539       .  S
C299        C681   1.544       .  S
C299        C685   1.529       .  S
C299        C833   1.541       .  S
C300        C665   1.547       .  S
C300        C669   1.539       .  S
C300        C674   1.553       .  S
C300        C814   1.548       .  S
N301        N302   1.324       .  A
N301        C305   1.346       .  A
N301       Cu309   2.073       .  S
N302        C303   1.353       .  A
N302       Cu308   2.125       .  S
C303        C304   1.393       .  A
C303        H306   1.082       .  S
C304        C305   1.385       .  A
C304        C682   1.493       .  S
C305        H307   1.081       .  S
Cu308       N311   2.125   1_455  S
Cu309       N319   2.072       .  S
Cu310       N312   2.067       .  S
Cu310       N318   2.066       .  S
N311        N312   1.323       .  A
N311        C315   1.354       .  A
N312        C313   1.345       .  A
C313        C314   1.383       .  A
C313        H316   1.082       .  S
C314        C315   1.395       .  A
C314        C666   1.494       .  S
C315        H317   1.082       .  S
N318        N319   1.320   1_655  A
N318        C322   1.344       .  A
N319        C320   1.345       .  A
C320        C321   1.387       .  A
C320        H323   1.081       .  S
C321        C322   1.382   1_455  A
C321        C662   1.477   1_565  S
C322        H324   1.082       .  S
C325        C649   1.531       .  S
C325        C653   1.540       .  S
C325        C657   1.539       .  S
C325        C714   1.528       .  S
N326        N327   1.324       .  A
N326        C330   1.346       .  A
N326       Cu334   2.087       .  S
N327        C328   1.346       .  A
N327       Cu333   2.079       .  S
C328        C329   1.382       .  A
C328        H331   1.082       .  S
C329        C330   1.387       .  A
C329        C693   1.481       .  S
C330        H332   1.082       .  S
Cu333       N336   2.078   1_545  S
Cu334       N344   2.086       .  S
Cu335       N337   2.052       .  S
Cu335       N343   2.051   1_565  S
N336        N337   1.321       .  A
N336        C340   1.347       .  A
N337        C338   1.339       .  A
C338        C339   1.382       .  A
C338        H341   1.081       .  S
C339        C340   1.385       .  A
C339        C650   1.474       .  S
C340        H342   1.082       .  S
N343        N344   1.320       .  A
N343        C347   1.342   1_545  A
N344        C345   1.346       .  A
C345        C346   1.391       .  A
C345        H348   1.081       .  S
C346        C347   1.379   1_545  A
C346        C645   1.477   1_556  S
C347        H349   1.082       .  S
C350        C633   1.548       .  S
C350        C637   1.539       .  S
C350        C641   1.546       .  S
C350        C734   1.541       .  S
N351        N352   1.326       .  A
N351        C355   1.348       .  A
N351       Cu359   2.081       .  S
N352        C353   1.349       .  A
N352       Cu358   2.111   1_565  S
C353        C354   1.388       .  A
C353        H356   1.082       .  S
C354        C355   1.384       .  A
C354        C642   1.485       .  S
C355        H357   1.082       .  S
Cu358       N361   2.110       .  S
Cu359       N369   2.079   1_565  S
Cu360       N362   2.052       .  S
Cu360       N368   2.052       .  S
N361        N362   1.322       .  A
N361        C365   1.352       .  A
N362        C363   1.341       .  A
C363        C364   1.379       .  A
C363        H366   1.082       .  S
C364        C365   1.392       .  A
C364        C629   1.483       .  S
C365        H367   1.082       .  S
N368        N369   1.319       .  A
N368        C372   1.343       .  A
N369        C370   1.346   1_545  A
C370        C371   1.390   1_565  A
C370        H373   1.081       .  S
C371        C372   1.380       .  A
C371        C625   1.477   1_556  S
C372        H374   1.082       .  S
N375        N376   1.322       .  A
N375        C379   1.342       .  A
N375       Cu383   2.061       .  S
N376        C377   1.352       .  A
N376       Cu382   2.107   1_655  S
C377        C378   1.391       .  A
C377        H380   1.082       .  S
C378        C379   1.384       .  A
C378        C638   1.488       .  S
C379        H381   1.081       .  S
Cu382       N385   2.108       .  S
Cu383       N393   2.059   1_655  S
Cu384       N386   2.078       .  S
Cu384       N392   2.078       .  S
N385        N386   1.325       .  A
N385        C389   1.350       .  A
N386        C387   1.347       .  A
C387        C388   1.385       .  A
C387        H390   1.081       .  S
C388        C389   1.388       .  A
C388        C658   1.486       .  S
C389        H391   1.082       .  S
N392        N393   1.320       .  A
N392        C396   1.347       .  A
N393        C394   1.343   1_455  A
C394        C395   1.380   1_655  A
C394        H397   1.082       .  S
C395        C396   1.390       .  A
C395        C621   1.479   1_565  S
C396        H398   1.081       .  S
N399        N400   1.325       .  A
N399        C403   1.347       .  A
N399       Cu407   2.068       .  S
N400        C401   1.354       .  A
N400       Cu406   2.137   1_556  S
C401        C402   1.395       .  A
C401        H404   1.082       .  S
C402        C403   1.383       .  A
C402        C634   1.494       .  S
C403        H405   1.082       .  S
Cu406       N409   2.137       .  S
Cu407       N417   2.068   1_556  S
Cu408       N410   2.063       .  S
Cu408       N416   2.063       .  S
N409        N410   1.324       .  A
N409        C413   1.354       .  A
N410        C411   1.347       .  A
C411        C412   1.382       .  A
C411        H414   1.082       .  S
C412        C413   1.396       .  A
C412        C673   1.492       .  S
C413        H415   1.082       .  S
N416        N417   1.320       .  A
N416        C420   1.343       .  A
N417        C418   1.345       .  A
C418        C419   1.386       .  A
C418        H421   1.081   1_554  S
C419        C420   1.380       .  A
C419        C617   1.474   1_655  S
C420        H422   1.082       .  S
C423        C605   1.552       .  S
C423        C610   1.540       .  S
C423        C614   1.542       .  S
C423        C789   1.543       .  S
C424        C597   1.536       .  S
C424        C601   1.540       .  S
C424        C630   1.537       .  S
C424        C773   1.541       .  S
N425        N426   1.323       .  A
N425        C429   1.345       .  A
N425       Cu433   2.074       .  S
N426        C427   1.348       .  A
N426       Cu432   2.094       .  S
C427        C428   1.387       .  A
C427        H430   1.082       .  S
C428        C429   1.386       .  A
C428        C609   1.484       .  S
C429        H431   1.081       .  S
Cu432       N435   2.095   1_554  S
Cu433       N443   2.074       .  S
Cu434       N436   2.076       .  S
Cu434       N442   2.075       .  S
N435        N436   1.323       .  A
N435        C439   1.347       .  A
N436        C437   1.348       .  A
C437        C438   1.383       .  A
C437        H440   1.082       .  S
C438        C439   1.385       .  A
C438        C598   1.478       .  S
C439        H441   1.082       .  S
N442        N443   1.322   1_556  A
N442        C446   1.345       .  A
N443        C444   1.345       .  A
C444        C445   1.383       .  A
C444        H447   1.082       .  S
C445        C446   1.387   1_554  A
C445        C593   1.480       .  S
C446        H448   1.081       .  S
N449        N450   1.324       .  A
N449        C453   1.349       .  A
N449       Cu457   2.072       .  S
N450        C451   1.349       .  A
N450       Cu456   2.119       .  S
C451        C452   1.391       .  A
C451        H454   1.082       .  S
C452        C453   1.385       .  A
C452        C709   1.488       .  S
C453        H455   1.082       .  S
Cu456       N459   2.119   1_455  S
Cu457       N467   2.072       .  S
Cu458       N460   2.073       .  S
Cu458       N466   2.073   1_655  S
N459        N460   1.323       .  A
N459        C463   1.350       .  A
N460        C461   1.349       .  A
C461        C462   1.385       .  A
C461        H464   1.082       .  S
C462        C463   1.392       .  A
C462        C606   1.489       .  S
C463        H465   1.082       .  S
N466        N467   1.322       .  A
N466        C470   1.344   1_455  A
N467        C468   1.345       .  A
C468        C469   1.382       .  A
C468        H471   1.082       .  S
C469        C470   1.386   1_455  A
C469        C661   1.478       .  S
C470        H472   1.081       .  S
N473        N474   1.323       .  A
N473        C477   1.345       .  A
N473       Cu481   2.063       .  S
N474        C475   1.351       .  A
N474       Cu480   2.113       .  S
C475        C476   1.392       .  A
C475        H478   1.082       .  S
C476        C477   1.383       .  A
C476        C698   1.488       .  S
C477        H479   1.082       .  S
Cu480       N483   2.113   1_455  S
Cu481       N491   2.063       .  S
Cu482       N484   2.085       .  S
Cu482       N490   2.083   1_655  S
N483        N484   1.325       .  A
N483        C487   1.353       .  A
N484        C485   1.345       .  A
C485        C486   1.387       .  A
C485        H488   1.082       .  S
C486        C487   1.390       .  A
C486        C602   1.493       .  S
C487        H489   1.082       .  S
N490        N491   1.321       .  A
N490        C494   1.348   1_455  A
N491        C492   1.343       .  A
C492        C493   1.380       .  A
C492        H495   1.082       .  S
C493        C494   1.390   1_455  A
C493        C622   1.478       .  S
C494        H496   1.082       .  S
N497        N498   1.325       .  A
N497        C501   1.349       .  A
N497       Cu505   2.074       .  S
N498        C499   1.350       .  A
N498       Cu504   2.122   1_565  S
C499        C500   1.389       .  A
C499        H502   1.082       .  S
C500        C501   1.382       .  A
C500        C678   1.482       .  S
C501        H503   1.082       .  S
Cu504       N507   2.122       .  S
Cu505       N515   2.075   1_565  S
Cu506       N508   2.061       .  S
Cu506       N514   2.060       .  S
N507        N508   1.322       .  A
N507        C511   1.352       .  A
N508        C509   1.346       .  A
C509        C510   1.384       .  A
C509        H512   1.081       .  S
C510        C511   1.394       .  A
C510        C706   1.492       .  S
C511        H513   1.082       .  S
N514        N515   1.321       .  A
N514        C518   1.342       .  A
N515        C516   1.347       .  A
C516        C517   1.389       .  A
C516        H519   1.081   1_545  S
C517        C518   1.379       .  A
C517        C646   1.476       .  S
C518        H520   1.082       .  S
N521        N522   1.324       .  A
N521        C525   1.345       .  A
N521       Cu529   2.071       .  S
N522        C523   1.349       .  A
N522       Cu528   2.106   1_565  S
C523        C524   1.388       .  A
C523        H526   1.082       .  S
C524        C525   1.384       .  A
C524        C670   1.484       .  S
C525        H527   1.082       .  S
Cu528       N531   2.106       .  S
Cu529       N539   2.070       .  S
Cu530       N532   2.072       .  S
Cu530       N538   2.072       .  S
N531        N532   1.323       .  A
N531        C535   1.350       .  A
N532        C533   1.346       .  A
C533        C534   1.385       .  A
C533        H536   1.082       .  S
C534        C535   1.390       .  A
C534        C613   1.487       .  S
C535        H537   1.082       .  S
N538        N539   1.321   1_545  A
N538        C542   1.345       .  A
N539        C540   1.344       .  A
C540        C541   1.382   1_565  A
C540        H543   1.082       .  S
C541        C542   1.387       .  A
C541        C626   1.478       .  S
C542        H544   1.081       .  S
N545        N546   1.323       .  A
N545        C549   1.348       .  A
N545       Cu553   2.077       .  S
N546        C547   1.344       .  A
N546       Cu552   2.087   1_556  S
C547        C548   1.383       .  A
C547        H550   1.082       .  S
C548        C549   1.385       .  A
C548        C690   1.477       .  S
C549        H551   1.082       .  S
Cu552       N555   2.086       .  S
Cu553       N563   2.077       .  S
Cu554       N556   2.079       .  S
Cu554       N562   2.078       .  S
N555        N556   1.322       .  A
N555        C559   1.348       .  A
N556        C557   1.347       .  A
C557        C558   1.388       .  A
C557        H560   1.082       .  S
C558        C559   1.385       .  A
C558        C702   1.485       .  S
C559        H561   1.082       .  S
N562        N563   1.323   1_554  A
N562        C566   1.345       .  A
N563        C564   1.346       .  A
C564        C565   1.384       .  A
C564        H567   1.082       .  S
C565        C566   1.387   1_556  A
C565        C594   1.480       .  S
C566        H568   1.081       .  S
N569        N570   1.324       .  A
N569        C573   1.345       .  A
N569       Cu577   2.067       .  S
N570        C571   1.346       .  A
N570       Cu576   2.094   1_556  S
C571        C572   1.386       .  A
C571        H574   1.082       .  S
C572        C573   1.382       .  A
C572        C654   1.478       .  S
C573        H575   1.082       .  S
Cu576       N579   2.092       .  S
Cu577       N587   2.067   1_556  S
Cu578       N580   2.061       .  S
Cu578       N586   2.061       .  S
N579        N580   1.322       .  A
N579        C583   1.350       .  A
N580        C581   1.341       .  A
C581        C582   1.383       .  A
C581        H584   1.082       .  S
C582        C583   1.387       .  A
C582        C686   1.480       .  S
C583        H585   1.082       .  S
N586        N587   1.320       .  A
N586        C590   1.342       .  A
N587        C588   1.345   1_554  A
C588        C589   1.382   1_556  A
C588        H591   1.082       .  S
C589        C590   1.385       .  A
C589        C618   1.475       .  S
C590        H592   1.081       .  S
C593        C594   1.345   1_654  D
C593        H595   1.085   1_655  S
C594        H596   1.085       .  S
C597        C598   1.351       .  D
C597        H599   1.088       .  S
C598        H600   1.086       .  S
C601        C602   1.350       .  D
C601        H603   1.085       .  S
C602        H604   1.086       .  S
C605        C606   1.362       .  D
C605        H607   1.086       .  S
C606        H608   1.083       .  S
C609        C610   1.353       .  D
C609        H611   1.084       .  S
C610        H612   1.087       .  S
C613        C614   1.356       .  D
C613        H615   1.084       .  S
C614        H616   1.087       .  S
C617        C618   1.342       .  D
C617        H619   1.085       .  S
C618        H620   1.085   1_554  S
C621        C622   1.342       .  D
C621        H623   1.086   1_455  S
C622        H624   1.085       .  S
C625        C626   1.343       .  D
C625        H627   1.085       .  S
C626        H628   1.085   1_545  S
C629        C630   1.354       .  D
C629        H631   1.086       .  S
C630        H632   1.086       .  S
C633        C634   1.361       .  D
C633        H635   1.086       .  S
C634        H636   1.084       .  S
C637        C638   1.355       .  D
C637        H639   1.086       .  S
C638        H640   1.084       .  S
C641        C642   1.357       .  D
C641        H643   1.086       .  S
C642        H644   1.083       .  S
C645        C646   1.341       .  D
C645        H647   1.085   1_545  S
C646        H648   1.085       .  S
C649        C650   1.350       .  D
C649        H651   1.086       .  S
C650        H652   1.084       .  S
C653        C654   1.354       .  D
C653        H655   1.086       .  S
C654        H656   1.082       .  S
C657        C658   1.354       .  D
C657        H659   1.087       .  S
C658        H660   1.085       .  S
C661        C662   1.344       .  D
C661        H663   1.085       .  S
C662        H664   1.085   1_455  S
C665        C666   1.360       .  D
C665        H667   1.087       .  S
C666        H668   1.084       .  S
C669        C670   1.355       .  D
C669        H671   1.087       .  S
C670        H672   1.084       .  S
C673        C674   1.363       .  D
C673        H675   1.083       .  S
C674        H676   1.086       .  S
C677        C678   1.355       .  D
C677        H679   1.087       .  S
C678        H680   1.086       .  S
C681        C682   1.355       .  D
C681        H683   1.085       .  S
C682        H684   1.086       .  S
C685        C686   1.349       .  D
C685        H687   1.085       .  S
C686        H688   1.086       .  S
C689        C690   1.354       .  D
C689        H691   1.087       .  S
C690        H692   1.083       .  S
C693        C694   1.349       .  D
C693        H695   1.084       .  S
C694        H696   1.088       .  S
C697        C698   1.358       .  D
C697        H699   1.086       .  S
C698        H700   1.084       .  S
C701        C702   1.351       .  D
C701        H703   1.087       .  S
C702        H704   1.084       .  S
C705        C706   1.360       .  D
C705        H707   1.086       .  S
C706        H708   1.084       .  S
C709        C710   1.360       .  D
C709        H711   1.083       .  S
C710        H712   1.086       .  S
C713        C714   1.345       .  D
C713        H715   1.087       .  S
C714        H716   1.089       .  S
C717        C718   1.347       .  D
C717        H719   1.086       .  S
C718        H720   1.086       .  S
C721        C722   1.350       .  D
C721        H723   1.085       .  S
C722        H724   1.086       .  S
C725        C726   1.344       .  D
C725        H727   1.085       .  S
C726        H728   1.085       .  S
C729        C730   1.355       .  D
C729        H731   1.087       .  S
C730        H732   1.086       .  S
C733        C734   1.350       .  D
C733        H735   1.088       .  S
C734        H736   1.088       .  S
C737        C738   1.361       .  D
C737        H739   1.086       .  S
C738        H740   1.084       .  S
C741        C742   1.357       .  D
C741        H743   1.086       .  S
C742        H744   1.083       .  S
C745        C746   1.354       .  D
C745        H747   1.086       .  S
C746        H748   1.084       .  S
C749        C750   1.351       .  D
C749        H751   1.087       .  S
C750        H752   1.089       .  S
C753        C754   1.353       .  D
C753        H755   1.086       .  S
C754        H756   1.085       .  S
C757        C758   1.346       .  D
C757        H759   1.086       .  S
C758        H760   1.086       .  S
C761        C762   1.344       .  D
C761        H763   1.085       .  S
C762        H764   1.085       .  S
C765        C766   1.354       .  D
C765        H767   1.087       .  S
C766        H768   1.086       .  S
C769        C770   1.342       .  D
C769        H771   1.085       .  S
C770        H772   1.086       .  S
C773        C774   1.363       .  D
C773        H775   1.086       .  S
C774        H776   1.088       .  S
C777        C778   1.354       .  D
C777        H779   1.087       .  S
C778        H780   1.084       .  S
C781        C782   1.359       .  D
C781        H783   1.087       .  S
C782        H784   1.084       .  S
C785        C786   1.356       .  D
C785        H787   1.086       .  S
C786        H788   1.084       .  S
C789        C790   1.354       .  D
C789        H791   1.088       .  S
C790        H792   1.088       .  S
C793        C794   1.363       .  D
C793        H795   1.086       .  S
C794        H796   1.084       .  S
C797        C798   1.354       .  D
C797        H799   1.087       .  S
C798        H800   1.083       .  S
C801        C802   1.344       .  D
C801        H803   1.085       .  S
C802        H804   1.085       .  S
C805        C806   1.356       .  D
C805        H807   1.084       .  S
C806        H808   1.087       .  S
C809        C810   1.344       .  D
C809        H811   1.085       .  S
C810        H812   1.085       .  S
C813        C814   1.360       .  D
C813        H815   1.086       .  S
C814        H816   1.086       .  S
C817        C818   1.359       .  D
C817        H819   1.087       .  S
C818        H820   1.084       .  S
C821        C822   1.356       .  D
C821        H823   1.087       .  S
C822        H824   1.083       .  S
C825        C826   1.362       .  D
C825        H827   1.086       .  S
C826        H828   1.083       .  S
C829        C830   1.343       .  D
C829        H831   1.085       .  S
C830        H832   1.085       .  S
C833        C834   1.351       .  D
C833        H835   1.087       .  S
C834        H836   1.088       .  S
C837        C838   1.356       .  D
C837        H839   1.087       .  S
C838        H840   1.086       .  S
C841        C842   1.361       .  D
C841        H843   1.086       .  S
C842        H844   1.082       .  S
C845        C846   1.351       .  D
C845        H847   1.087       .  S
C846        H848   1.085       .  S
C849        C850   1.353       .  D
C849        H851   1.087       .  S
C850        H852   1.088       .  S
C853        C854   1.350       .  D
C853        H855   1.085       .  S
C854        H856   1.086       .  S
C857        C858   1.357       .  D
C857        H859   1.087       .  S
C858        H860   1.086       .  S
C861        C862   1.356       .  D
C861        H863   1.085       .  S
C862        H864   1.086       .  S
