geometry optimzed in LAMMPS
_audit_creation_date              2020-12-01 
_audit_creation_method            'lammps2cif' 
_symmetry_space_group_name_H-M    'P1' 
_symmetry_Int_Tables_number       1 
_symmetry_cell_setting            triclinic 
loop_ 
_symmetry_equiv_pos_as_xyz 
  x,y,z 
_cell_length_a                    27.34029727 
_cell_length_b                    30.06764440676681 
_cell_length_c                    37.76044973034212 
_cell_angle_alpha                 89.81369249476164 
_cell_angle_beta                  89.73371065476044 
_cell_angle_gamma                 118.85426372885588 
loop_ 
_atom_site_label 
_atom_site_type_symbol 
_atom_site_fract_x 
_atom_site_fract_y 
_atom_site_fract_z 
_atom_site_charge 
C1          C  0.18691063  0.32515641  0.37367629     0.80400
N2          N  0.17611751  0.29849486  0.40458844    -0.77900
C3          C  0.15532516  0.24741381  0.40431078     0.82900
N4          N  0.14632061  0.22311656  0.37299678    -0.77800
C5          C  0.15794412  0.24889544  0.34193730     0.83000
N6          N  0.17875943  0.30008640  0.34229379    -0.79600
C7          C  0.23537831  0.01441374  0.37406637     0.80400
N8          N  0.22076915  0.02792289  0.40512511    -0.77900
C9          C  0.19463379  0.05648513  0.40497124     0.82900
N10         N  0.18237711  0.07072316  0.37356288    -0.77800
C11         C  0.19510566  0.05630268  0.34237713     0.83000
N12         N  0.22090553  0.02742595  0.34272773    -0.79600
C13         C  0.41298750  0.78829482  0.38183802     0.80400
N14         N  0.38342403  0.73683664  0.38122517    -0.77900
C15         C  0.40966031  0.70819681  0.38154625     0.82900
N16         N  0.46642071  0.73191477  0.38229420    -0.77800
C17         C  0.49674170  0.78345545  0.38302061     0.83000
N18         N  0.46957515  0.81108177  0.38257721    -0.79600
C19         C  0.91651347  0.97563169  0.37358784     0.80400
N20         N  0.94409534  0.99106696  0.40493166    -0.77900
C21         C  0.99974963  0.02402997  0.40506636     0.82900
N22         N  0.02787526  0.04079000  0.37404284    -0.77800
C23         C  0.00103061  0.02538392  0.34278967     0.83000
N24         N  0.94538733  0.99264412  0.34250623    -0.79600
O25         O  0.17471064  0.24353752  0.46490944    -0.80700
O26         O  0.16762171  0.06667331  0.06207559    -0.65400
O27         O  0.19144105  0.16321322  0.49011915    -1.12000
C28         C  0.03189068  0.03837701  0.43773234     1.06200
O29         O  0.12469485  0.99457130  0.03162685    -0.78600
O30         O  0.15852311  0.03312562  0.46342691    -0.66200
Ni31       Ni  0.20902638  0.23037141  0.00545668     1.34900
C32         C  0.16900800  0.06342337  0.43734581     0.84900
O33         O  0.25238064  0.15587067  0.04594209    -0.79100
O34         O  0.25000812  0.22887657  0.04679495    -0.89400
C35         C  0.14692539  0.01903228  0.05976897     0.84500
O36         O  0.14191806  0.20582411  0.03309257    -0.67600
O37         O  0.05040623  0.00952246  0.44918616    -0.86900
C38         C  0.13161868  0.17570951  0.05922895     0.85300
C39         C  0.26828837  0.19983200  0.05820865     1.06900
H40         H  0.07905712  0.07230763  0.02205773     0.38700
O41         O  0.10806593  0.07505385  0.00620524    -1.09600
O42         O  0.15177717  0.09596296  0.43616418    -0.66200
Ni43       Ni  0.11934797  0.12305047  0.46978949     1.26300
O44         O  0.14818200  0.14265990  0.06021383    -0.66400
O45         O  0.04728390  0.08217473  0.45018473    -0.78700
C46         C  0.15286920  0.21929305  0.43664365     0.84700
O47         O  0.13208731  0.17165887  0.43416311    -0.65900
Ni48       Ni  0.09095288  0.00798790  0.49077653     1.27400
Ni49       Ni  0.18021589  0.11522253  0.02647941     1.26100
H50         H  0.22062424  0.16592559  0.47419176     0.39300
O51         O  0.12685033  0.99605725  0.21573302    -0.80700
O52         O  0.13635772  0.17387460  0.31227027    -0.65400
O53         O  0.11038057  0.07671252  0.24100192    -1.12000
C54         C  0.26962825  0.20089882  0.18567647     1.06200
O55         O  0.17837207  0.24574139  0.28085290    -0.78600
O56         O  0.14457941  0.20779831  0.21260730    -0.66200
Ni57       Ni  0.09269542  0.00939183  0.25666679     1.34900
C58         C  0.13351430  0.17720965  0.18684454     0.84900
O59         O  0.05094197  0.08471803  0.29805448    -0.79100
O60         O  0.05175899  0.01093990  0.29834386    -0.89400
C61         C  0.15671392  0.22146743  0.30946897     0.84500
O62         O  0.15962244  0.03329710  0.28402314    -0.67600
O63         O  0.25226597  0.23036701  0.19765594    -0.86900
C64         C  0.17063920  0.06389037  0.30975227     0.85300
C65         C  0.03436791  0.04040695  0.31025995     1.06900
H66         H  0.22365271  0.16737028  0.27072424     0.38700
O67         O  0.19435060  0.16478796  0.25536219    -1.09600
O68         O  0.14944377  0.14376982  0.18599571    -0.66200
Ni69       Ni  0.18199906  0.11649591  0.21924489     1.26300
O70         O  0.15499218  0.09755797  0.31043110    -0.66400
O71         O  0.25359080  0.15683587  0.19818117    -0.78700
C72         C  0.14794431  0.02008095  0.18696162     0.84700
O73         O  0.16812503  0.06762629  0.18396627    -0.65900
Ni74       Ni  0.21190406  0.23209837  0.23963042     1.27400
Ni75       Ni  0.12264860  0.12499040  0.27707036     1.26100
H76         H  0.08097348  0.07411652  0.22560806     0.39300
C77         C  0.38558706  0.26430025  0.12070157     0.80400
N78         N  0.35689520  0.24762246  0.08984415    -0.77900
C79         C  0.30132448  0.21452428  0.09047190     0.82900
N80         N  0.27412515  0.19869213  0.12185715    -0.77800
C81         C  0.30190593  0.21530776  0.15270382     0.83000
N82         N  0.35745616  0.24840538  0.15215478    -0.79600
C83         C  0.06850857  0.22715132  0.12320356     0.80400
N84         N  0.08194775  0.21291633  0.09199581    -0.77900
C85         C  0.10730924  0.18362992  0.09186160     0.82900
N86         N  0.12015900  0.16950360  0.12311342    -0.77800
C87         C  0.10851642  0.18450592  0.15439795     0.83000
N88         N  0.08320683  0.21370211  0.15428195    -0.79600
C89         C  0.88686187  0.45053874  0.13657339     0.80400
N90         N  0.91892423  0.50191177  0.13649393    -0.77900
C91         C  0.89509094  0.53241807  0.13526055     0.82900
N92         N  0.83852670  0.51111391  0.13375822    -0.77800
C93         C  0.80588913  0.45988144  0.13393373     0.83000
N94         N  0.83057499  0.43007736  0.13519387    -0.79600
C95         C  0.11542800  0.91480683  0.12406258     0.80400
N96         N  0.12520247  0.94100020  0.15501465    -0.77900
C97         C  0.14592371  0.99209648  0.15467361     0.82900
N98         N  0.15596207  0.01682368  0.12327561    -0.77800
C99         C  0.14540113  0.99148313  0.09227675     0.83000
N100        N  0.12452089  0.94029545  0.09268871    -0.79600
C101        C  0.01367255  0.66736530  0.14767240    -0.14200
C102        C  0.99341244  0.69513570  0.12871794     0.16200
C103        C  0.94173130  0.66934676  0.11146115     0.02500
C104        C  0.91038656  0.61648668  0.11411893    -0.12700
C105        C  0.93015535  0.58834028  0.13330420    -0.03700
C106        C  0.98286377  0.61430215  0.14983884     0.01700
C107        C  0.02620165  0.75111620  0.12773872     0.08600
N108        N  0.92008408  0.69649612  0.09170102     0.64900
H109        H  0.87049918  0.59736579  0.10080676     0.17900
N110        N  0.00494404  0.58770751  0.16986656     0.75400
H111        H  0.05357363  0.68705999  0.16093240     0.09400
C112        C  0.03079293  0.77985896  0.15802120     0.03100
C113        C  0.06139332  0.83280797  0.15647047    -0.05600
C114        C  0.08806319  0.85832046  0.12496345    -0.24000
C115        C  0.08495646  0.82902934  0.09486171     0.12300
C116        C  0.05369779  0.77590030  0.09645958    -0.13200
N117        N  0.00277810  0.75576489  0.19023188     0.64000
H118        H  0.06274607  0.85392622  0.17997040     0.11800
N119        N  0.11460857  0.85224843  0.06287997     0.60600
H120        H  0.05132997  0.75380853  0.07327113     0.08000
O121        O  0.04035520  0.57763760  0.15574525    -0.40800
O122        O  0.99801438  0.58376565  0.20301537    -0.40000
O123        O  0.92412389  0.69828612  0.05836613    -0.40000
O124        O  0.88827419  0.71019307  0.10675177    -0.37700
O125        O  0.16425172  0.86069243  0.05908987    -0.38600
O126        O  0.08818384  0.85450594  0.03623836    -0.34800
O127        O  0.03037797  0.75203398  0.21566202    -0.36200
O128        O  0.95314606  0.74661750  0.19539421    -0.40500
C129        C  0.91030789  0.33536122  0.14214327    -0.14200
C130        C  0.96641521  0.35681422  0.13182442     0.16200
C131        C  0.99608993  0.40880259  0.12311319     0.02500
C132        C  0.96965916  0.43858966  0.12537912    -0.12700
C133        C  0.91334365  0.41742369  0.13586564    -0.03700
C134        C  0.88352667  0.36487794  0.14420022     0.01700
C135        C  0.99279085  0.32398991  0.12962125     0.08600
N136        N  0.05337468  0.43206696  0.11239848     0.64900
H137        H  0.99342040  0.47846589  0.11840897     0.17900
N138        N  0.82624982  0.34063792  0.15504819     0.75400
H139        H  0.88692564  0.29519232  0.14841076     0.09400
C140        C  0.99700210  0.29833671  0.15968296     0.03100
C141        C  0.02092202  0.26666107  0.15669876    -0.05600
C142        C  0.04108172  0.25956620  0.12401308    -0.24000
C143        C  0.03544282  0.28451571  0.09361583     0.12300
C144        C  0.01159705  0.31642498  0.09678010    -0.13200
N145        N  0.97835213  0.30501481  0.19367672     0.64000
H146        H  0.02395193  0.24781440  0.18042618     0.11800
N147        N  0.05368117  0.27828747  0.05936906     0.60600
H148        H  0.00719876  0.33503435  0.07332745     0.08000
O149        O  0.81434824  0.33751127  0.18760357    -0.40800
O150        O  0.78908441  0.31268955  0.13344094    -0.40000
O151        O  0.06593994  0.44118910  0.08000632    -0.40000
O152        O  0.09107678  0.45233918  0.13536554    -0.37700
O153        O  0.01877860  0.24640518  0.03828448    -0.38600
O154        O  0.10081926  0.31118404  0.04778666    -0.34800
O155        O  0.93433566  0.26955552  0.20704873    -0.36200
O156        O  0.01115677  0.34130408  0.21295735    -0.40500
C157        C  0.53903043  0.33704820  0.09261715    -0.14200
C158        C  0.56450503  0.35810771  0.12492818     0.16200
C159        C  0.53091740  0.35198738  0.15482265     0.02500
C160        C  0.47287806  0.32267782  0.15249747    -0.12700
C161        C  0.44697591  0.29924114  0.12057625    -0.03700
C162        C  0.48091734  0.30810963  0.09003885     0.01700
C163        C  0.62616788  0.38467347  0.12714729     0.08600
N164        N  0.55524011  0.37342020  0.18815352     0.64900
H165        H  0.44817324  0.31751340  0.17619644     0.17900
N166        N  0.45764371  0.28739067  0.05634287     0.75400
H167        H  0.56458396  0.34266385  0.06924409     0.09400
C168        C  0.65631823  0.35894866  0.11939783     0.03100
C169        C  0.71443909  0.38454678  0.12124743    -0.05600
C170        C  0.74406702  0.43581888  0.13123981    -0.24000
C171        C  0.71366994  0.46185195  0.13862407     0.12300
C172        C  0.65519853  0.43609467  0.13646884    -0.13200
N173        N  0.62830618  0.30614443  0.11087135     0.64000
H174        H  0.73632173  0.36367147  0.11496659     0.11800
N175        N  0.74102979  0.51392240  0.14901986     0.60600
H176        H  0.63233588  0.45636629  0.14207018     0.08000
O177        O  0.46030788  0.24917657  0.04501321    -0.40800
O178        O  0.44554947  0.31316892  0.03521076    -0.40000
O179        O  0.55333789  0.41212937  0.19918383    -0.40000
O180        O  0.56873925  0.34851113  0.20915502    -0.37700
O181        O  0.75071055  0.54798654  0.12619484    -0.38600
O182        O  0.74499528  0.52485515  0.18148413    -0.34800
O183        O  0.63000974  0.29248403  0.07953409    -0.36200
O184        O  0.61165376  0.27358204  0.13551814    -0.40500
C185        C  0.64985998  0.88521940  0.38606809    -0.14200
C186        C  0.67617808  0.85830231  0.37366573     0.16200
C187        C  0.64395566  0.80649437  0.36566213     0.02500
C188        C  0.58579457  0.78252530  0.36960242    -0.12700
C189        C  0.55882542  0.80940722  0.38173544    -0.03700
C190        C  0.59188686  0.86134922  0.39057523     0.01700
C191        C  0.73769275  0.88462706  0.37152041     0.08600
N192        N  0.66967994  0.77805736  0.35284600     0.64900
H193        H  0.56171367  0.74292864  0.36240338     0.17900
N194        N  0.56789080  0.89000889  0.40567224     0.75400
H195        H  0.67475218  0.92483388  0.39318931     0.09400
C196        C  0.76638719  0.92096239  0.34492160     0.03100
C197        C  0.82465474  0.94907217  0.34559656    -0.05600
C198        C  0.85519686  0.94239676  0.37297170    -0.24000
C199        C  0.82621056  0.90545043  0.39948598     0.12300
C200        C  0.76787515  0.87673615  0.39838098    -0.13200
N201        N  0.73673752  0.93034182  0.31743625     0.64000
H202        H  0.84593681  0.97741920  0.32514197     0.11800
N203        N  0.85521703  0.89621263  0.42747322     0.60600
H204        H  0.74588346  0.84903854  0.41909645     0.08000
O205        O  0.56896150  0.92644870  0.38837203    -0.40800
O206        O  0.55710651  0.88614773  0.43842322    -0.40000
O207        O  0.67355871  0.74634177  0.37297135    -0.40000
O208        O  0.67917239  0.77796843  0.32012172    -0.37700
O209        O  0.85713662  0.91485341  0.45765955    -0.38600
O210        O  0.86856972  0.86170855  0.42409317    -0.34800
O211        O  0.72832197  0.96797733  0.31964090    -0.36200
O212        O  0.72842124  0.90714138  0.28843733    -0.40500
C213        C  0.30257572  0.83188635  0.38116004    -0.14200
C214        C  0.33575114  0.88371052  0.37367354     0.16200
C215        C  0.39364902  0.90381274  0.36912121     0.02500
C216        C  0.41746571  0.87203387  0.37176908    -0.12700
C217        C  0.38480375  0.81999996  0.37970552    -0.03700
C218        C  0.32648644  0.80003465  0.38467325     0.01700
C219        C  0.31008588  0.91710305  0.37325666     0.08600
N220        N  0.42887044  0.95656313  0.36171430     0.64900
H221        H  0.46201476  0.88855070  0.36743768     0.17900
N222        N  0.29125256  0.74840256  0.39508007     0.75400
H223        H  0.25810038  0.81645594  0.38558819     0.09400
C224        C  0.27260962  0.91353349  0.34659812     0.03100
C225        C  0.24937918  0.94602941  0.34707153    -0.05600
C226        C  0.26203738  0.98169213  0.37425744    -0.24000
C227        C  0.29905381  0.98457967  0.40128637     0.12300
C228        C  0.32286969  0.95256454  0.40041779    -0.13200
N229        N  0.25817089  0.87740945  0.31873017     0.64000
H230        H  0.22059691  0.94273875  0.32631545     0.12400
N231        N  0.31409831  0.02059545  0.42929328     0.60600
H232        H  0.35134085  0.95519574  0.42120608     0.08000
O233        O  0.28745337  0.73633913  0.42741466    -0.40800
O234        O  0.25598930  0.71784793  0.37354196    -0.40000
O235        O  0.45736853  0.98580158  0.38629280    -0.40000
O236        O  0.43996083  0.97154527  0.32998480    -0.37700
O237        O  0.29049074  0.00639531  0.45913190    -0.38600
O238        O  0.35806380  0.06279757  0.42650122    -0.34800
O239        O  0.21235482  0.83662632  0.32018229    -0.36200
O240        O  0.28544984  0.89037474  0.29003228    -0.40500
C241        C  0.36470144  0.56727137  0.36963601    -0.14200
C242        C  0.30690794  0.54521055  0.37511614     0.16200
C243        C  0.28363236  0.57650441  0.38391358     0.02500
C244        C  0.31791268  0.62905709  0.38611037    -0.12700
C245        C  0.37592220  0.65174680  0.38017133    -0.03700
C246        C  0.39936710  0.61984940  0.37235992     0.01700
C247        C  0.27227305  0.48923034  0.37367777     0.08600
N248        N  0.22505438  0.55554848  0.39028147     0.64900
H249        H  0.29862127  0.65209147  0.39265475     0.17900
N250        N  0.45810078  0.63971394  0.36738237     0.75400
H251        H  0.38325035  0.54333151  0.36388677     0.09400
C252        C  0.26904498  0.46209304  0.34268173     0.03100
C253        C  0.23971142  0.40898196  0.34305388    -0.05600
C254        C  0.21348923  0.38165730  0.37410060    -0.24000
C255        C  0.21587100  0.40928232  0.40504838     0.12300
C256        C  0.24511131  0.46244911  0.40447093    -0.13200
N257        N  0.29547455  0.48798622  0.31057015     0.64000
H258        H  0.23868575  0.38918718  0.31891831     0.11800
N259        N  0.18945106  0.38436580  0.43744615     0.60600
H260        H  0.24789816  0.48295424  0.42859238     0.08000
O261        O  0.47764708  0.64416252  0.33644879    -0.40800
O262        O  0.48790026  0.64220144  0.39352269    -0.40000
O263        O  0.20728832  0.55157478  0.42166593    -0.40000
O264        O  0.19331555  0.55140423  0.36489555    -0.37700
O265        O  0.21787073  0.37740056  0.46088083    -0.38600
O266        O  0.14262050  0.38015898  0.44569783    -0.34800
O267        O  0.33958428  0.48832085  0.30017958    -0.36200
O268        O  0.26915147  0.50121619  0.28945161    -0.40500
C269        C  0.18693590  0.32516104  0.87368032     0.80400
N270        N  0.17613533  0.29849561  0.90459111    -0.77900
C271        C  0.15533698  0.24741391  0.90431135     0.82900
N272        N  0.14633296  0.22311913  0.87299647    -0.77800
C273        C  0.15796243  0.24890140  0.84193822     0.83000
N274        N  0.17878359  0.30009295  0.84229692    -0.79600
C275        C  0.23536228  0.01439987  0.87407035     0.80400
N276        N  0.22074906  0.02790691  0.90512827    -0.77900
C277        C  0.19461876  0.05647318  0.90497332     0.82900
N278        N  0.18237132  0.07071796  0.87356443    -0.77800
C279        C  0.19510436  0.05630002  0.84237911     0.83000
N280        N  0.22089893  0.02741869  0.84273088    -0.79600
C281        C  0.41298019  0.78829019  0.88185611     0.80400
N282        N  0.38341788  0.73683221  0.88124680    -0.77900
C283        C  0.40965369  0.70819210  0.88156507     0.82900
N284        N  0.46641486  0.73191143  0.88230497    -0.77800
C285        C  0.49673589  0.78345255  0.88302790     0.83000
N286        N  0.46956830  0.81107826  0.88258797    -0.79600
C287        C  0.91650851  0.97563999  0.87357370     0.80400
N288        N  0.94408580  0.99107185  0.90491945    -0.77900
C289        C  0.99974088  0.02403219  0.90505813     0.82900
N290        N  0.02787200  0.04079269  0.87403638    -0.77800
C291        C  0.00103237  0.02539024  0.84278124     0.83000
N292        N  0.94538803  0.99265345  0.84249394    -0.79600
O293        O  0.17471084  0.24353062  0.96491070    -0.80700
O294        O  0.16765025  0.06669161  0.56207512    -0.65400
O295        O  0.19142872  0.16319956  0.99012035    -1.12000
C296        C  0.03187702  0.03837489  0.93772666     1.06200
O297        O  0.12472779  0.99458890  0.53162668    -0.78600
O298        O  0.15849952  0.03311053  0.96342716    -0.66200
Ni299      Ni  0.20903090  0.23038321  0.50545559     1.34900
C300        C  0.16898988  0.06341039  0.93734659     0.84900
O301        O  0.25240157  0.15589323  0.54593820    -0.79100
O302        O  0.25001601  0.22889304  0.54679398    -0.89400
C303        C  0.14695716  0.01905076  0.55976852     0.84500
O304        O  0.14192223  0.20582938  0.53309198    -0.67600
O305        O  0.05038668  0.00951644  0.94918203    -0.86900
C306        C  0.13162868  0.17571696  0.55922907     0.85300
C307        C  0.26830307  0.19985271  0.55820615     1.06900
H308        H  0.07907718  0.07231570  0.52206030     0.38700
O309        O  0.10808609  0.07506417  0.50620683    -1.09600
O310        O  0.15176326  0.09595274  0.93616423    -0.66200
Ni311      Ni  0.11933615  0.12304303  0.96978809     1.26300
O312        O  0.14819901  0.14267215  0.56021403    -0.66400
O313        O  0.04727279  0.08217270  0.95017999    -0.78700
C314        C  0.15287192  0.21928898  0.93664367     0.84700
O315        O  0.13208481  0.17165439  0.93416200    -0.65900
Ni316      Ni  0.09092718  0.00797622  0.99077452     1.27400
Ni317      Ni  0.18023635  0.11523877  0.52647852     1.26100
H318        H  0.22061208  0.16590925  0.97419383     0.39300
O319        O  0.12686865  0.99606879  0.71573091    -0.80700
O320        O  0.13637058  0.17388187  0.81226853    -0.65400
O321        O  0.11039762  0.07672295  0.74099923    -1.12000
C322        C  0.26964400  0.20091136  0.68567496     1.06200
O323        O  0.17838983  0.24575064  0.78085350    -0.78600
O324        O  0.14459101  0.20780456  0.71260824    -0.66200
Ni325      Ni  0.09270852  0.00940095  0.75666293     1.34900
C326        C  0.13352791  0.17721728  0.68684469     0.84900
O327        O  0.05095437  0.08472737  0.79804975    -0.79100
O328        O  0.05176659  0.01094713  0.79833807    -0.89400
C329        C  0.15673018  0.22147514  0.80946881     0.84500
O330        O  0.15963137  0.03330222  0.78402267    -0.67600
O331        O  0.25227748  0.23037693  0.69765331    -0.86900
C332        C  0.17064605  0.06389384  0.80975252     0.85300
C333        C  0.03437583  0.04041478  0.81025365     1.06900
H334        H  0.22366808  0.16738041  0.77072451     0.38700
O335        O  0.19436683  0.16479792  0.75536173    -1.09600
O336        O  0.14946189  0.14378059  0.68599459    -0.66200
Ni337      Ni  0.18201783  0.11650749  0.71924401     1.26300
O338        O  0.15500264  0.09756405  0.81043018    -0.66400
O339        O  0.25361077  0.15684987  0.69818136    -0.78700
C340        C  0.14796577  0.02009367  0.68696032     0.84700
O341        O  0.16814690  0.06763908  0.68396538    -0.65900
Ni342      Ni  0.21191828  0.23210768  0.73962935     1.27400
Ni343      Ni  0.12266324  0.12499934  0.77706810     1.26100
H344        H  0.08099223  0.07412806  0.72560501     0.39300
C345        C  0.38560505  0.26430394  0.62069975     0.80400
N346        N  0.35691175  0.24763343  0.58984216    -0.77900
C347        C  0.30133832  0.21454493  0.59046976     0.82900
N348        N  0.27413823  0.19871390  0.62185488    -0.77800
C349        C  0.30192079  0.21532101  0.65270174     0.83000
N350        N  0.35747360  0.24840955  0.65215292    -0.79600
C351        C  0.06851741  0.22715620  0.62320505     0.80400
N352        N  0.08195615  0.21292139  0.59199704    -0.77900
C353        C  0.10731836  0.18363553  0.59186219     0.82900
N354        N  0.12016962  0.16950984  0.62311376    -0.77800
C355        C  0.10852762  0.18451203  0.65439859     0.83000
N356        N  0.08321709  0.21370743  0.65428312    -0.79600
C357        C  0.88688505  0.45055482  0.63657671     0.80400
N358        N  0.91894478  0.50192823  0.63649571    -0.77900
C359        C  0.89510832  0.53243205  0.63526036     0.82900
N360        N  0.83854377  0.51112485  0.63375762    -0.77800
C361        C  0.80590917  0.45989214  0.63393425     0.83000
N362        N  0.83059796  0.43009074  0.63519630    -0.79600
C363        C  0.11544459  0.91482121  0.62405977     0.80400
N364        N  0.12521931  0.94101323  0.65501236    -0.77900
C365        C  0.14594784  0.99211043  0.65467246     0.82900
N366        N  0.15599307  0.01684006  0.62327503    -0.77800
C367        C  0.14543229  0.99150084  0.59227571     0.83000
N368        N  0.12454482  0.94031232  0.59268659    -0.79600
C369        C  0.01368457  0.66738422  0.64766388    -0.14200
C370        C  0.99341694  0.69515035  0.62871162     0.16200
C371        C  0.94173333  0.66935726  0.61145836     0.02500
C372        C  0.91039308  0.61649707  0.61411809    -0.12700
C373        C  0.93016912  0.58835465  0.63330150    -0.03700
C374        C  0.98288071  0.61432098  0.64983187     0.01700
C375        C  0.02620157  0.75113085  0.62773159     0.08600
N376        N  0.92007981  0.69650223  0.59169914     0.64900
H377        H  0.87050354  0.59737298  0.60080867     0.17900
N378        N  0.00497002  0.58773091  0.66985621     0.75400
H379        H  0.05358792  0.68708239  0.66092092     0.09400
C380        C  0.03078599  0.77987330  0.65801293     0.03100
C381        C  0.06139023  0.83282207  0.65646349    -0.05600
C382        C  0.08807074  0.85833458  0.62495885    -0.24000
C383        C  0.08496698  0.82904378  0.59485753     0.12300
C384        C  0.05370472  0.77591489  0.59645415    -0.13200
N385        N  0.00276296  0.75577895  0.69022152     0.64000
H386        H  0.06273919  0.85394027  0.67996264     0.11800
N387        N  0.11462690  0.85226290  0.56287798     0.60600
H388        H  0.05134115  0.75382315  0.57326657     0.08000
O389        O  0.04038009  0.57766360  0.65573022    -0.40800
O390        O  0.99805165  0.58379340  0.70300590    -0.40000
O391        O  0.92411811  0.69829238  0.55836418    -0.40000
O392        O  0.88826504  0.71019290  0.60675059    -0.37700
O393        O  0.16427100  0.86070712  0.55909364    -0.38600
O394        O  0.08820897  0.85452143  0.53623299    -0.34800
O395        O  0.03035552  0.75204358  0.71565437    -0.36200
O396        O  0.95313139  0.74663575  0.69537933    -0.40500
C397        C  0.91033318  0.33537863  0.64214551    -0.14200
C398        C  0.96644139  0.35683277  0.63182893     0.16200
C399        C  0.99611753  0.40882218  0.62312131     0.02500
C400        C  0.96968611  0.43860891  0.62538689    -0.12700
C401        C  0.91336910  0.41744149  0.63587057    -0.03700
C402        C  0.88355185  0.36489504  0.64420324     0.01700
C403        C  0.99281621  0.32400807  0.62962505     0.08600
N404        N  0.05340454  0.43208789  0.61241163     0.64900
H405        H  0.99344801  0.47848590  0.61841901     0.17900
N406        N  0.82627492  0.34065422  0.65505112     0.75400
H407        H  0.88695064  0.29520918  0.64841129     0.09400
C408        C  0.99703069  0.29835760  0.65968716     0.03100
C409        C  0.02094492  0.26667752  0.65670235    -0.05600
C410        C  0.04109387  0.25957402  0.62401521    -0.24000
C411        C  0.03545001  0.28451984  0.59361737     0.12300
C412        C  0.01161289  0.31643602  0.59678271    -0.13200
N413        N  0.97838793  0.30504177  0.69368166     0.64000
H414        H  0.02397826  0.24783375  0.68043031     0.11800
N415        N  0.05367012  0.27827734  0.55936843     0.60600
H416        H  0.00721126  0.33504320  0.57332990     0.08000
O417        O  0.81437327  0.33752826  0.68760645    -0.40800
O418        O  0.78910968  0.31270516  0.63344401    -0.40000
O419        O  0.06597751  0.44121724  0.58002091    -0.40000
O420        O  0.09110156  0.45235242  0.63538263    -0.37700
O421        O  0.01875693  0.24638345  0.53829433    -0.38600
O422        O  0.10080116  0.31116995  0.54777372    -0.34800
O423        O  0.93436951  0.26958797  0.70705595    -0.36200
O424        O  0.01119818  0.34133161  0.71295982    -0.40500
C425        C  0.53904868  0.33704997  0.59261279    -0.14200
C426        C  0.56452561  0.35810254  0.62492469     0.16200
C427        C  0.53094014  0.35197306  0.65482196     0.02500
C428        C  0.47290058  0.32266591  0.65249749    -0.12700
C429        C  0.44699561  0.29923833  0.62057473    -0.03700
C430        C  0.48093519  0.30811177  0.59003563     0.01700
C431        C  0.62618883  0.38467327  0.62714176     0.08600
N432        N  0.55526553  0.37339319  0.68815490     0.64900
H433        H  0.44819784  0.31749614  0.67619828     0.17900
N434        N  0.45765933  0.28739830  0.55633897     0.75400
H435        H  0.56460056  0.34267131  0.56923802     0.09400
C436        C  0.65634458  0.35895602  0.61938428     0.03100
C437        C  0.71446533  0.38455802  0.62123562    -0.05600
C438        C  0.74408747  0.43582635  0.63123759    -0.24000
C439        C  0.71368533  0.46185243  0.63862902     0.12300
C440        C  0.65521413  0.43609140  0.63647212    -0.13200
N441        N  0.62833814  0.30615486  0.61084892     0.64000
H442        H  0.73635266  0.36368871  0.61494892     0.11800
N443        N  0.74103973  0.51391850  0.64903534     0.60600
H444        H  0.63234726  0.45635729  0.64207997     0.08000
O445        O  0.46032100  0.24918486  0.54500520    -0.40800
O446        O  0.44556662  0.31318107  0.53521010    -0.40000
O447        O  0.55335290  0.41209101  0.69919981    -0.40000
O448        O  0.56878180  0.34848253  0.70914343    -0.37700
O449        O  0.75072475  0.54799159  0.62621690    -0.38600
O450        O  0.74499507  0.52483762  0.68150182    -0.34800
O451        O  0.63004829  0.29250596  0.57950925    -0.36200
O452        O  0.61168323  0.27358402  0.63549025    -0.40500
C453        C  0.64985517  0.88522129  0.88604963    -0.14200
C454        C  0.67617123  0.85830354  0.87364504     0.16200
C455        C  0.64394708  0.80649321  0.86564779     0.02500
C456        C  0.58578682  0.78252288  0.86959703    -0.12700
C457        C  0.55882003  0.80940561  0.88173284    -0.03700
C458        C  0.59188350  0.86134988  0.89056603     0.01700
C459        C  0.73768666  0.88462823  0.87149864     0.08600
N460        N  0.66966852  0.77805409  0.85283096     0.64900
H461        H  0.56170449  0.74292392  0.86240404     0.17900
N462        N  0.56789199  0.89001000  0.90566842     0.75400
H463        H  0.67474862  0.92483694  0.89316758     0.09400
C464        C  0.76638229  0.92096523  0.84490071     0.03100
C465        C  0.82465037  0.94907685  0.84557729    -0.05600
C466        C  0.85519154  0.94240291  0.87295392    -0.24000
C467        C  0.82620383  0.90545533  0.89946720     0.12300
C468        C  0.76786873  0.87673858  0.89836007    -0.13200
N469        N  0.73673331  0.93034578  0.81741545     0.64000
H470        H  0.84593334  0.97742501  0.82512353     0.11800
N471        N  0.85520878  0.89621992  0.92745655     0.60600
H472        H  0.74587665  0.84904061  0.91907526     0.08000
O473        O  0.56895901  0.92645036  0.88837102    -0.40800
O474        O  0.55711523  0.88614798  0.93842045    -0.40000
O475        O  0.67354673  0.74633813  0.87295625    -0.40000
O476        O  0.67915641  0.77796218  0.82010624    -0.37700
O477        O  0.85711156  0.91484936  0.95764487    -0.38600
O478        O  0.86858366  0.86173065  0.92407346    -0.34800
O479        O  0.72829660  0.96796857  0.81962831    -0.36200
O480        O  0.72843859  0.90716280  0.78841053    -0.40500
C481        C  0.30255946  0.83187105  0.88117370    -0.14200
C482        C  0.33573062  0.88369411  0.87368303     0.16200
C483        C  0.39362887  0.90379987  0.86913035     0.02500
C484        C  0.41745063  0.87202542  0.87178250    -0.12700
C485        C  0.38479300  0.81999248  0.87972324    -0.03700
C486        C  0.32647496  0.80002381  0.88469134     0.01700
C487        C  0.31006204  0.91708366  0.87326566     0.08600
N488        N  0.42884542  0.95654970  0.86171918     0.64900
H489        H  0.46199988  0.88854472  0.86745076     0.17900
N490        N  0.29124460  0.74839293  0.89510236     0.75400
H491        H  0.25808392  0.81643845  0.88560239     0.09400
C492        C  0.27258752  0.91351445  0.84660597     0.03100
C493        C  0.24935903  0.94601200  0.84707769    -0.05600
C494        C  0.26201696  0.98167502  0.87426331    -0.24000
C495        C  0.29902898  0.98455993  0.90129441     0.12300
C496        C  0.32284334  0.95254383  0.90042728    -0.13200
N497        N  0.25814882  0.87738944  0.81873870     0.64000
H498        H  0.22057897  0.94272281  0.82632049     0.12400
N499        N  0.31407143  0.02057473  0.92930182     0.60600
H500        H  0.35131252  0.95517408  0.92121665     0.08000
O501        O  0.28746173  0.73633268  0.92743686    -0.40800
O502        O  0.25596581  0.71783872  0.87357125    -0.40000
O503        O  0.45734230  0.98579422  0.88629539    -0.40000
O504        O  0.43992922  0.97152774  0.82998855    -0.37700
O505        O  0.29046133  0.00637366  0.95913965    -0.38600
O506        O  0.35803745  0.06277669  0.92651124    -0.34800
O507        O  0.21233069  0.83660820  0.82018997    -0.36200
O508        O  0.28542982  0.89035298  0.79004154    -0.40500
C509        C  0.36470619  0.56726066  0.86968948    -0.14200
C510        C  0.30690129  0.54520932  0.87510638     0.16200
C511        C  0.28360687  0.57650534  0.88384394     0.02500
C512        C  0.31788603  0.62905651  0.88605306    -0.12700
C513        C  0.37591312  0.65174098  0.88018429    -0.03700
C514        C  0.39937188  0.61983701  0.87242950     0.01700
C515        C  0.27226737  0.48923316  0.87367371     0.08600
N516        N  0.22501078  0.55555041  0.89013605     0.64900
H517        H  0.29857855  0.65209261  0.89255006     0.17900
N518        N  0.45811943  0.63969095  0.86753532     0.75400
H519        H  0.38326070  0.54331355  0.86398085     0.09400
C520        C  0.26899656  0.46209758  0.84267106     0.03100
C521        C  0.23967402  0.40898645  0.84304673    -0.05600
C522        C  0.21351057  0.38166249  0.87410597    -0.24000
C523        C  0.21593821  0.40928989  0.90506285     0.12300
C524        C  0.24515765  0.46245708  0.90447860    -0.13200
N525        N  0.29537116  0.48799483  0.81054974     0.64000
H526        H  0.23861121  0.38919200  0.81890358     0.11800
N527        N  0.18959927  0.38437656  0.93747850     0.60600
H528        H  0.24797360  0.48296840  0.92860234     0.08000
O529        O  0.47776391  0.64411471  0.83663240    -0.40800
O530        O  0.48783392  0.64219655  0.89372875    -0.40000
O531        O  0.20714338  0.55154749  0.92149641    -0.40000
O532        O  0.19334854  0.55140852  0.86470396    -0.37700
O533        O  0.21807900  0.37741627  0.96087254    -0.38600
O534        O  0.14278551  0.38016369  0.94578618    -0.34800
O535        O  0.33948951  0.48836860  0.80013280    -0.36200
O536        O  0.26900466  0.50120915  0.78945558    -0.40500
loop_ 
_geom_bond_atom_site_label_1 
_geom_bond_atom_site_label_2 
_geom_bond_distance 
_geom_bond_site_symmetry_2 
_ccdc_geom_bond_type 
C1            N2   1.362       .  A
C1            N6   1.367       .  A
C1          C254   1.491       .  S
N2            C3   1.356       .  A
C3            N4   1.352       .  A
C3           C46   1.466       .  S
N4            C5   1.353       .  A
C5            N6   1.359       .  A
C5           C61   1.471       .  S
C7            N8   1.362       .  A
C7           N12   1.364       .  A
C7          C226   1.480   1_545  S
N8            C9   1.357       .  A
C9           N10   1.357       .  A
C9           C32   1.471       .  S
N10          C11   1.357       .  A
C11          N12   1.357       .  A
C11          C64   1.473       .  S
C13          N14   1.357       .  A
C13          N18   1.357       .  A
C13         C217   1.489       .  S
N14          C15   1.361       .  A
C15          N16   1.360       .  A
C15         C245   1.491       .  S
N16          C17   1.360       .  A
C17          N18   1.356       .  A
C17         C189   1.488       .  S
C19          N20   1.363       .  A
C19          N24   1.364       .  A
C19         C198   1.481       .  S
N20          C21   1.357   1_565  A
C21          N22   1.353   1_655  A
C21          C28   1.459   1_655  S
N22          C23   1.353       .  A
C23          N24   1.356   1_445  A
C23          C65   1.460       .  S
O25          C46   1.272       .  A
O25        Ni299   1.936       .  S
O26          C35   1.264       .  A
O26         Ni49   1.885       .  S
O27          H50   0.968       .  S
O27         Ni43   1.912       .  S
O27        Ni299   1.928       .  S
O27        Ni317   1.902       .  S
C28          O45   1.266       .  A
C28          O37   1.273       .  A
O29          C35   1.272   1_565  A
O29        Ni316   1.940   1_564  S
O30          C32   1.273       .  A
O30         Ni48   1.918       .  S
Ni31         O34   1.939       .  S
Ni31         O36   1.916       .  S
Ni31        O293   1.936   1_554  S
Ni31        O295   1.928   1_554  S
C32          O42   1.275       .  A
O33          C39   1.266       .  A
O33         Ni49   1.902       .  S
O34          C39   1.272       .  A
C35          C99   1.468   1_545  S
O36          C38   1.272       .  A
O37         Ni48   1.940       .  S
C38          C85   1.471       .  S
C38          O44   1.276       .  A
C39          C79   1.457       .  S
H40          O41   0.962       .  S
O41         Ni49   1.912       .  S
O41        Ni311   1.903   1_554  S
O41        Ni316   1.930   1_554  S
O42         Ni43   1.938       .  S
Ni43         O47   1.886       .  S
Ni43         O45   1.903       .  S
Ni43        O309   1.903       .  S
O44         Ni49   1.940       .  S
C46          O47   1.264       .  A
Ni48        O297   1.940   1_545  S
Ni48        O309   1.930       .  S
Ni49        O295   1.902   1_554  S
O51          C72   1.273   1_565  A
O51         Ni57   1.943   1_565  S
O52          C61   1.264       .  A
O52         Ni75   1.885       .  S
O53          H76   0.967       .  S
O53         Ni57   1.930       .  S
O53         Ni75   1.903       .  S
O53         Ni69   1.913       .  S
C54          C81   1.461       .  S
C54          O71   1.266       .  A
C54          O63   1.273       .  A
O55          C61   1.274       .  A
O55         Ni74   1.946       .  S
O56          C58   1.274       .  A
O56         Ni74   1.920       .  S
Ni57         O60   1.941       .  S
Ni57         O62   1.920       .  S
C58          C87   1.472       .  S
C58          O68   1.275       .  A
O59          C65   1.267       .  A
O59         Ni75   1.904       .  S
O60          C65   1.273       .  A
O62          C64   1.274       .  A
O63         Ni74   1.942       .  S
C64          O70   1.275       .  A
H66          O67   0.964       .  S
O67         Ni75   1.913       .  S
O67         Ni69   1.904       .  S
O67         Ni74   1.932       .  S
O68         Ni69   1.936       .  S
Ni69         O73   1.886       .  S
Ni69         O71   1.903       .  S
O70         Ni75   1.938       .  S
C72          C97   1.470   1_545  S
C72          O73   1.264       .  A
C77          N78   1.363       .  A
C77          N82   1.365       .  A
C77         C161   1.490       .  S
N78          C79   1.356       .  A
C79          N80   1.353       .  A
N80          C81   1.352       .  A
C81          N82   1.356       .  A
C83          N84   1.363       .  A
C83          N88   1.364       .  A
C83         C142   1.489       .  S
N84          C85   1.359       .  A
C85          N86   1.357       .  A
N86          C87   1.356       .  A
C87          N88   1.355       .  A
C89          N90   1.359       .  A
C89          N94   1.355       .  A
C89         C133   1.487       .  S
N90          C91   1.358       .  A
C91          N92   1.360       .  A
C91         C105   1.481       .  S
N92          C93   1.357       .  A
C93          N94   1.358       .  A
C93         C170   1.487       .  S
C95          N96   1.365       .  A
C95         N100   1.364       .  A
C95         C114   1.489       .  S
N96          C97   1.357       .  A
C97          N98   1.352   1_565  A
N98          C99   1.353   1_545  A
C99         N100   1.359       .  A
C101        C102   1.401   1_455  A
C101        C106   1.401   1_455  A
C101        H111   1.084       .  S
C102        C107   1.477   1_655  S
C102        C103   1.406       .  A
C103        C104   1.398       .  A
C103        N108   1.428       .  S
C104        C105   1.405       .  A
C104        H109   1.084       .  S
C105        C106   1.415       .  A
C106        N110   1.429   1_655  S
C107        C112   1.405       .  A
C107        C116   1.400       .  A
N108        O123   1.262       .  A
N108        O124   1.262       .  A
N110        O121   1.262       .  A
N110        O122   1.262   1_455  A
C112        C113   1.397       .  A
C112        N117   1.429       .  S
C113        C114   1.408       .  A
C113        H118   1.083       .  S
C114        C115   1.418       .  A
C115        C116   1.403       .  A
C115        N119   1.429       .  S
C116        H120   1.084       .  S
N117        O127   1.262       .  A
N117        O128   1.262   1_455  A
N119        O125   1.262       .  A
N119        O126   1.262       .  A
C129        C130   1.400       .  A
C129        C134   1.399       .  A
C129        H139   1.084       .  S
C130        C135   1.479       .  S
C130        C131   1.407       .  A
C131        C132   1.399       .  A
C131        N136   1.429   1_655  S
C132        C133   1.407       .  A
C132        H137   1.083       .  S
C133        C134   1.418       .  A
C134        N138   1.429       .  S
C135        C140   1.406       .  A
C135        C144   1.401   1_655  A
N136        O151   1.262       .  A
N136        O152   1.262       .  A
N138        O149   1.262       .  A
N138        O150   1.262       .  A
C140        C141   1.396   1_655  A
C140        N145   1.429       .  S
C141        C142   1.408       .  A
C141        H146   1.083       .  S
C142        C143   1.418       .  A
C143        C144   1.401       .  A
C143        N147   1.429       .  S
C144        H148   1.084       .  S
N145        O155   1.262       .  A
N145        O156   1.262   1_655  A
N147        O153   1.262       .  A
N147        O154   1.262       .  A
C157        C158   1.401       .  A
C157        C162   1.400       .  A
C157        H167   1.084       .  S
C158        C163   1.480       .  S
C158        C159   1.406       .  A
C159        C160   1.398       .  A
C159        N164   1.429       .  S
C160        C161   1.408       .  A
C160        H165   1.083       .  S
C161        C162   1.418       .  A
C162        N166   1.429       .  S
C163        C168   1.406       .  A
C163        C172   1.402       .  A
N164        O179   1.262       .  A
N164        O180   1.262       .  A
N166        O177   1.262       .  A
N166        O178   1.262       .  A
C168        C169   1.394       .  A
C168        N173   1.429       .  S
C169        C170   1.406       .  A
C169        H174   1.082       .  S
C170        C171   1.417       .  A
C171        C172   1.403       .  A
C171        N175   1.429       .  S
C172        H176   1.084       .  S
N173        O183   1.262       .  A
N173        O184   1.262       .  A
N175        O181   1.262       .  A
N175        O182   1.262       .  A
C185        C186   1.398       .  A
C185        C190   1.398       .  A
C185        H195   1.084       .  S
C186        C191   1.475       .  S
C186        C187   1.405       .  A
C187        C188   1.400       .  A
C187        N192   1.428       .  S
C188        C189   1.408       .  A
C188        H193   1.083       .  S
C189        C190   1.418       .  A
C190        N194   1.429       .  S
C191        C196   1.406       .  A
C191        C200   1.400       .  A
N192        O207   1.262       .  A
N192        O208   1.262       .  A
N194        O205   1.262       .  A
N194        O206   1.262       .  A
C196        C197   1.398       .  A
C196        N201   1.428       .  S
C197        C198   1.405       .  A
C197        H202   1.084       .  S
C198        C199   1.414       .  A
C199        C200   1.401       .  A
C199        N203   1.429       .  S
C200        H204   1.084       .  S
N201        O211   1.262       .  A
N201        O212   1.262       .  A
N203        O209   1.262       .  A
N203        O210   1.262       .  A
C213        C214   1.400       .  A
C213        C218   1.402       .  A
C213        H223   1.084       .  S
C214        C219   1.477       .  S
C214        C215   1.405       .  A
C215        C216   1.396       .  A
C215        N220   1.429       .  S
C216        C217   1.407       .  A
C216        H221   1.082       .  S
C217        C218   1.418       .  A
C218        N222   1.429       .  S
C219        C224   1.407       .  A
C219        C228   1.401       .  A
N220        O235   1.262       .  A
N220        O236   1.262       .  A
N222        O233   1.262       .  A
N222        O234   1.262       .  A
C224        C225   1.399       .  A
C224        N229   1.428       .  S
C225        C226   1.406       .  A
C225        H230   1.084       .  S
C226        C227   1.414       .  A
C227        C228   1.399       .  A
C227        N231   1.429   1_565  S
C228        H232   1.084       .  S
N229        O239   1.262       .  A
N229        O240   1.262       .  A
N231        O237   1.262       .  A
N231        O238   1.262       .  A
C241        C242   1.401       .  A
C241        C246   1.401       .  A
C241        H251   1.084       .  S
C242        C247   1.482       .  S
C242        C243   1.407       .  A
C243        C244   1.398       .  A
C243        N248   1.429       .  S
C244        C245   1.408       .  A
C244        H249   1.082       .  S
C245        C246   1.418       .  A
C246        N250   1.429       .  S
C247        C252   1.408       .  A
C247        C256   1.400       .  A
N248        O263   1.262       .  A
N248        O264   1.262       .  A
N250        O261   1.262       .  A
N250        O262   1.262       .  A
C252        C253   1.399       .  A
C252        N257   1.429       .  S
C253        C254   1.407       .  A
C253        H258   1.083       .  S
C254        C255   1.419       .  A
C255        C256   1.400       .  A
C255        N259   1.429       .  S
C256        H260   1.084       .  S
N257        O267   1.262       .  A
N257        O268   1.262       .  A
N259        O265   1.262       .  A
N259        O266   1.262       .  A
C269        N270   1.362       .  A
C269        N274   1.367       .  A
C269        C522   1.491       .  S
N270        C271   1.356       .  A
C271        N272   1.352       .  A
C271        C314   1.466       .  S
N272        C273   1.353       .  A
C273        N274   1.359       .  A
C273        C329   1.471       .  S
C275        N276   1.362       .  A
C275        N280   1.364       .  A
C275        C494   1.480   1_545  S
N276        C277   1.357       .  A
C277        N278   1.357       .  A
C277        C300   1.471       .  S
N278        C279   1.357       .  A
C279        N280   1.357       .  A
C279        C332   1.473       .  S
C281        N282   1.357       .  A
C281        N286   1.357       .  A
C281        C485   1.489       .  S
N282        C283   1.361       .  A
C283        N284   1.360       .  A
C283        C513   1.491       .  S
N284        C285   1.360       .  A
C285        N286   1.356       .  A
C285        C457   1.488       .  S
C287        N288   1.363       .  A
C287        N292   1.364       .  A
C287        C466   1.481       .  S
N288        C289   1.357   1_565  A
C289        N290   1.353   1_655  A
C289        C296   1.459   1_655  S
N290        C291   1.353       .  A
C291        N292   1.356   1_445  A
C291        C333   1.460       .  S
O293        C314   1.272       .  A
O294        C303   1.264       .  A
O294       Ni317   1.885       .  S
O295        H318   0.968       .  S
O295       Ni311   1.912       .  S
C296        O313   1.266       .  A
C296        O305   1.273       .  A
O297        C303   1.272   1_565  A
O298        C300   1.273       .  A
O298       Ni316   1.918       .  S
Ni299       O302   1.939       .  S
Ni299       O304   1.916       .  S
C300        O310   1.275       .  A
O301        C307   1.266       .  A
O301       Ni317   1.902       .  S
O302        C307   1.272       .  A
C303        C367   1.468   1_545  S
O304        C306   1.272       .  A
O305       Ni316   1.940       .  S
C306        C353   1.471       .  S
C306        O312   1.276       .  A
C307        C347   1.457       .  S
H308        O309   0.962       .  S
O309       Ni317   1.912       .  S
O310       Ni311   1.938       .  S
Ni311       O315   1.886       .  S
Ni311       O313   1.903       .  S
O312       Ni317   1.940       .  S
C314        O315   1.264       .  A
O319        C340   1.273   1_565  A
O319       Ni325   1.943   1_565  S
O320        C329   1.264       .  A
O320       Ni343   1.885       .  S
O321        H344   0.967       .  S
O321       Ni325   1.930       .  S
O321       Ni343   1.903       .  S
O321       Ni337   1.913       .  S
C322        C349   1.461       .  S
C322        O339   1.266       .  A
C322        O331   1.273       .  A
O323        C329   1.274       .  A
O323       Ni342   1.946       .  S
O324        C326   1.274       .  A
O324       Ni342   1.920       .  S
Ni325       O328   1.941       .  S
Ni325       O330   1.920       .  S
C326        C355   1.472       .  S
C326        O336   1.275       .  A
O327        C333   1.267       .  A
O327       Ni343   1.904       .  S
O328        C333   1.273       .  A
O330        C332   1.274       .  A
O331       Ni342   1.942       .  S
C332        O338   1.275       .  A
H334        O335   0.964       .  S
O335       Ni343   1.913       .  S
O335       Ni337   1.904       .  S
O335       Ni342   1.932       .  S
O336       Ni337   1.936       .  S
Ni337       O341   1.886       .  S
Ni337       O339   1.903       .  S
O338       Ni343   1.938       .  S
C340        C365   1.470   1_545  S
C340        O341   1.264       .  A
C345        N346   1.363       .  A
C345        N350   1.365       .  A
C345        C429   1.490       .  S
N346        C347   1.356       .  A
C347        N348   1.353       .  A
N348        C349   1.352       .  A
C349        N350   1.356       .  A
C351        N352   1.363       .  A
C351        N356   1.364       .  A
C351        C410   1.489       .  S
N352        C353   1.359       .  A
C353        N354   1.357       .  A
N354        C355   1.356       .  A
C355        N356   1.355       .  A
C357        N358   1.359       .  A
C357        N362   1.355       .  A
C357        C401   1.487       .  S
N358        C359   1.358       .  A
C359        N360   1.360       .  A
C359        C373   1.481       .  S
N360        C361   1.357       .  A
C361        N362   1.358       .  A
C361        C438   1.487       .  S
C363        N364   1.365       .  A
C363        N368   1.364       .  A
C363        C382   1.489       .  S
N364        C365   1.357       .  A
C365        N366   1.352   1_565  A
N366        C367   1.353   1_545  A
C367        N368   1.359       .  A
C369        C370   1.401   1_455  A
C369        C374   1.401   1_455  A
C369        H379   1.084       .  S
C370        C375   1.477   1_655  S
C370        C371   1.406       .  A
C371        C372   1.398       .  A
C371        N376   1.428       .  S
C372        C373   1.405       .  A
C372        H377   1.084       .  S
C373        C374   1.415       .  A
C374        N378   1.429   1_655  S
C375        C380   1.405       .  A
C375        C384   1.400       .  A
N376        O391   1.262       .  A
N376        O392   1.262       .  A
N378        O389   1.262       .  A
N378        O390   1.262   1_455  A
C380        C381   1.397       .  A
C380        N385   1.429       .  S
C381        C382   1.408       .  A
C381        H386   1.083       .  S
C382        C383   1.418       .  A
C383        C384   1.403       .  A
C383        N387   1.429       .  S
C384        H388   1.084       .  S
N385        O395   1.262       .  A
N385        O396   1.262   1_455  A
N387        O393   1.262       .  A
N387        O394   1.262       .  A
C397        C398   1.400       .  A
C397        C402   1.399       .  A
C397        H407   1.084       .  S
C398        C403   1.479       .  S
C398        C399   1.407       .  A
C399        C400   1.399       .  A
C399        N404   1.429   1_655  S
C400        C401   1.407       .  A
C400        H405   1.083       .  S
C401        C402   1.418       .  A
C402        N406   1.429       .  S
C403        C408   1.406       .  A
C403        C412   1.401   1_655  A
N404        O419   1.262       .  A
N404        O420   1.262       .  A
N406        O417   1.262       .  A
N406        O418   1.262       .  A
C408        C409   1.396   1_655  A
C408        N413   1.429       .  S
C409        C410   1.408       .  A
C409        H414   1.083       .  S
C410        C411   1.418       .  A
C411        C412   1.401       .  A
C411        N415   1.429       .  S
C412        H416   1.084       .  S
N413        O423   1.262       .  A
N413        O424   1.262   1_655  A
N415        O421   1.262       .  A
N415        O422   1.262       .  A
C425        C426   1.401       .  A
C425        C430   1.400       .  A
C425        H435   1.084       .  S
C426        C431   1.480       .  S
C426        C427   1.406       .  A
C427        C428   1.398       .  A
C427        N432   1.429       .  S
C428        C429   1.408       .  A
C428        H433   1.083       .  S
C429        C430   1.418       .  A
C430        N434   1.429       .  S
C431        C436   1.406       .  A
C431        C440   1.402       .  A
N432        O447   1.262       .  A
N432        O448   1.262       .  A
N434        O445   1.262       .  A
N434        O446   1.262       .  A
C436        C437   1.394       .  A
C436        N441   1.429       .  S
C437        C438   1.406       .  A
C437        H442   1.082       .  S
C438        C439   1.417       .  A
C439        C440   1.403       .  A
C439        N443   1.429       .  S
C440        H444   1.084       .  S
N441        O451   1.262       .  A
N441        O452   1.262       .  A
N443        O449   1.262       .  A
N443        O450   1.262       .  A
C453        C454   1.398       .  A
C453        C458   1.398       .  A
C453        H463   1.084       .  S
C454        C459   1.475       .  S
C454        C455   1.405       .  A
C455        C456   1.400       .  A
C455        N460   1.428       .  S
C456        C457   1.408       .  A
C456        H461   1.083       .  S
C457        C458   1.418       .  A
C458        N462   1.429       .  S
C459        C464   1.406       .  A
C459        C468   1.400       .  A
N460        O475   1.262       .  A
N460        O476   1.262       .  A
N462        O473   1.262       .  A
N462        O474   1.262       .  A
C464        C465   1.398       .  A
C464        N469   1.428       .  S
C465        C466   1.405       .  A
C465        H470   1.084       .  S
C466        C467   1.414       .  A
C467        C468   1.401       .  A
C467        N471   1.429       .  S
C468        H472   1.084       .  S
N469        O479   1.262       .  A
N469        O480   1.262       .  A
N471        O477   1.262       .  A
N471        O478   1.262       .  A
C481        C482   1.400       .  A
C481        C486   1.402       .  A
C481        H491   1.084       .  S
C482        C487   1.477       .  S
C482        C483   1.405       .  A
C483        C484   1.396       .  A
C483        N488   1.429       .  S
C484        C485   1.407       .  A
C484        H489   1.082       .  S
C485        C486   1.418       .  A
C486        N490   1.429       .  S
C487        C492   1.407       .  A
C487        C496   1.401       .  A
N488        O503   1.262       .  A
N488        O504   1.262       .  A
N490        O501   1.262       .  A
N490        O502   1.262       .  A
C492        C493   1.399       .  A
C492        N497   1.428       .  S
C493        C494   1.406       .  A
C493        H498   1.084       .  S
C494        C495   1.414       .  A
C495        C496   1.399       .  A
C495        N499   1.429   1_565  S
C496        H500   1.084       .  S
N497        O507   1.262       .  A
N497        O508   1.262       .  A
N499        O505   1.262       .  A
N499        O506   1.262       .  A
C509        C510   1.401       .  A
C509        C514   1.401       .  A
C509        H519   1.084       .  S
C510        C515   1.482       .  S
C510        C511   1.407       .  A
C511        C512   1.398       .  A
C511        N516   1.429       .  S
C512        C513   1.408       .  A
C512        H517   1.082       .  S
C513        C514   1.418       .  A
C514        N518   1.429       .  S
C515        C520   1.407       .  A
C515        C524   1.400       .  A
N516        O531   1.262       .  A
N516        O532   1.262       .  A
N518        O529   1.262       .  A
N518        O530   1.262       .  A
C520        C521   1.399       .  A
C520        N525   1.429       .  S
C521        C522   1.407       .  A
C521        H526   1.083       .  S
C522        C523   1.419       .  A
C523        C524   1.400       .  A
C523        N527   1.429       .  S
C524        H528   1.084       .  S
N525        O535   1.262       .  A
N525        O536   1.262       .  A
N527        O533   1.262       .  A
N527        O534   1.262       .  A
