geometry optimzed in LAMMPS
_audit_creation_date              2020-12-01 
_audit_creation_method            'lammps2cif' 
_symmetry_space_group_name_H-M    'P1' 
_symmetry_Int_Tables_number       1 
_symmetry_cell_setting            triclinic 
loop_ 
_symmetry_equiv_pos_as_xyz 
  x,y,z 
_cell_length_a                    30.61107795 
_cell_length_b                    30.702626956134164 
_cell_length_c                    45.68757807774032 
_cell_angle_alpha                 90.00651417947503 
_cell_angle_beta                  90.15397985127304 
_cell_angle_gamma                 88.98977568963224 
loop_ 
_atom_site_label 
_atom_site_type_symbol 
_atom_site_fract_x 
_atom_site_fract_y 
_atom_site_fract_z 
_atom_site_charge 
C1          C  0.23842002  0.49971745  0.25091968    -0.01300
C2          C  0.46364435  0.28527760  0.01128366     0.03500
C3          C  0.46552958  0.29762071  0.98163198     0.03500
C4          C  0.00980511  0.29127981  0.97050991    -0.17000
C5          C  0.04877432  0.28316709  0.98586880     0.03500
C6          C  0.04709445  0.27229877  0.01582217     0.03500
C7          C  0.00612469  0.26766877  0.02919630    -0.17000
H8          H  0.00458636  0.26067133  0.05243057     0.05500
H9          H  0.01120721  0.29931767  0.94740029     0.05500
C10         C  0.23717619  0.00226038  0.74906604    -0.01300
C11         C  0.00424294  0.24888546  0.74797462    -0.01300
C12         C  0.26978375  0.46089362  0.98438933     0.03500
C13         C  0.26167193  0.45884365  0.01465820     0.03500
C14         C  0.28903552  0.00046743  0.02726068    -0.17000
C15         C  0.28146956  0.04052560  0.01327292     0.03500
C16         C  0.26093199  0.04147658  0.98558776     0.03500
C17         C  0.24931032  0.00224286  0.97240292    -0.17000
H18         H  0.23603420  0.00311928  0.95037465     0.05500
H19         H  0.30274654  0.99997794  0.04919395     0.05500
N20         N  0.22573610  0.34382017  0.88887418    -0.04900
N21         N  0.20907767  0.36227951  0.91251914    -0.57000
N22         N  0.26524851  0.35009721  0.82135556    -0.04600
N23         N  0.27595712  0.38121755  0.80283035    -0.59100
N24         N  0.22260541  0.34461229  0.82126439    -0.04200
N25         N  0.20366745  0.37156758  0.80235275    -0.57000
N26         N  0.26842512  0.34752927  0.88859864    -0.03800
N27         N  0.28175628  0.36879106  0.91202688    -0.59500
C28         C  0.24431629  0.37756479  0.92675888     0.97300
C29         C  0.23728909  0.39407510  0.79101631     0.97100
N30         N  0.35312901  0.24128099  0.81940585    -0.05100
N31         N  0.38530223  0.23039022  0.80128395    -0.57600
N32         N  0.34828847  0.28325724  0.88707623    -0.03200
N33         N  0.36801996  0.29959602  0.91029604    -0.58800
N34         N  0.35330980  0.24066033  0.88646920    -0.05100
N35         N  0.37624804  0.22702311  0.90922563    -0.57900
N36         N  0.34731138  0.28397943  0.81962093    -0.02800
N37         N  0.37456141  0.30259864  0.80127306    -0.58900
Mn38       Mn  0.30801495  0.31717428  0.85391003     1.18400
C39         C  0.39801891  0.26898466  0.78992944     0.99400
C40         C  0.38510085  0.26395106  0.92387902     1.00000
N41         N  0.15603602  0.26320935  0.82441000    -0.05100
N42         N  0.12241393  0.27351885  0.80725278    -0.61400
N43         N  0.16828265  0.22468952  0.89326825    -0.03900
N44         N  0.14923577  0.20973732  0.91713460    -0.62100
N45         N  0.16322508  0.26722698  0.89168232    -0.04600
N46         N  0.14123973  0.28217868  0.91447478    -0.61700
N47         N  0.16078099  0.22050157  0.82614173    -0.03500
N48         N  0.13065220  0.20117613  0.81030812    -0.62400
Mn49       Mn  0.19100476  0.30551264  0.85594162     1.10700
C50         C  0.10725599  0.23440058  0.79838056     1.00600
C51         C  0.13286359  0.24609043  0.93026240     1.00700
N52         N  0.29153799  0.16282057  0.88897358    -0.04600
N53         N  0.31171108  0.14279522  0.91086788    -0.60000
N54         N  0.24273936  0.15461433  0.82405900    -0.04000
N55         N  0.22922592  0.12329651  0.80648024    -0.56700
N56         N  0.28534800  0.15938830  0.82157679    -0.05300
N57         N  0.30140127  0.13122895  0.80230448    -0.59600
N58         N  0.24897317  0.15934443  0.89149935    -0.04300
N59         N  0.23931864  0.13670960  0.91518778    -0.56800
Mn60       Mn  0.32167706  0.20022540  0.85346298     1.20200
Mn61       Mn  0.20451538  0.18884180  0.85868955     1.10100
Cl62       Cl  0.25626479  0.25288695  0.85482007    -0.84700
C63         C  0.27886388  0.12686893  0.92712966     0.97600
C64         C  0.26606856  0.10914807  0.79287971     0.97400
N65         N  0.16727974  0.21864685  0.18040637    -0.04900
N66         N  0.13637734  0.19969260  0.19551214    -0.57000
N67         N  0.16015887  0.26326130  0.11406638    -0.04600
N68         N  0.13563545  0.27714240  0.09199107    -0.59100
N69         N  0.16316446  0.22049087  0.11395392    -0.04200
N70         N  0.14007074  0.20430653  0.09220330    -0.57000
N71         N  0.16265565  0.26148478  0.18135950    -0.03800
N72         N  0.12782342  0.27193661  0.19730827    -0.59500
C73         C  0.11227042  0.23291516  0.20623889     0.97300
C74         C  0.12359399  0.23996756  0.07850472     0.97100
N75         N  0.26800780  0.33895737  0.10776675    -0.05100
N76         N  0.27823192  0.36251259  0.08467447    -0.57600
N77         N  0.23456530  0.34223510  0.17814395    -0.03200
N78         N  0.22180984  0.37434397  0.19589574    -0.58800
N79         N  0.27733387  0.34339027  0.17450589    -0.05100
N80         N  0.29413149  0.37550371  0.18977438    -0.57900
N81         N  0.22544254  0.33854146  0.11132777    -0.02800
N82         N  0.20572925  0.36186980  0.09079484    -0.58900
Mn83       Mn  0.19481142  0.30225939  0.14700692     1.18400
C84         C  0.23895356  0.37614779  0.07418754     0.99400
C85         C  0.25959616  0.39443895  0.20324372     1.00000
N86         N  0.23954156  0.15313337  0.11081054    -0.05100
N87         N  0.22275313  0.13412028  0.08762608    -0.61400
N88         N  0.28883720  0.15264743  0.17711005    -0.03900
N89         N  0.30691282  0.12504227  0.19603784    -0.62100
N90         N  0.24594060  0.15004937  0.17801807    -0.04600
N91         N  0.23410552  0.12050379  0.19734162    -0.61700
N92         N  0.28233555  0.15392763  0.10912091    -0.03500
N93         N  0.29565693  0.13533524  0.08450089    -0.62400
Mn94       Mn  0.20366817  0.18490272  0.14608955     1.10700
C95         C  0.25795533  0.12330778  0.07138733     1.00600
C96         C  0.27238172  0.10534613  0.20858812     1.00700
N97         N  0.35543589  0.27392155  0.17095264    -0.04600
N98         N  0.38688403  0.29225387  0.18612528    -0.60000
N99         N  0.34917897  0.22765022  0.10592858    -0.04000
N100        N  0.37282700  0.21253000  0.08397008    -0.56700
N101        N  0.34503236  0.27025525  0.10435445    -0.05300
N102        N  0.36585337  0.28508178  0.08119077    -0.59600
N103        N  0.35849236  0.23110531  0.17276868    -0.04300
N104        N  0.39218245  0.21968725  0.18952378    -0.56800
Mn105      Mn  0.31194365  0.30721952  0.13941145     1.20200
Mn106      Mn  0.32070337  0.19027172  0.14175022     1.10100
Cl107      Cl  0.25783903  0.24626913  0.14427007    -0.84700
C108        C  0.40918814  0.25829403  0.19789594     0.97600
C109        C  0.38255500  0.24854952  0.06854890     0.97400
N110        N  0.07747468  0.01977792  0.68031823    -0.04900
N111        N  0.10555675  0.03590005  0.69927692    -0.57000
N112        N  0.09402561  0.47064470  0.61196868    -0.04600
N113        N  0.11764098  0.45137817  0.59153280    -0.59100
N114        N  0.08474549  0.01003738  0.61318924    -0.04200
N115        N  0.11093258  0.01902688  0.59100465    -0.57000
N116        N  0.09454533  0.47549938  0.67883488    -0.03800
N117        N  0.11985248  0.46059064  0.70023481    -0.59500
C118        C  0.12028448  0.00068225  0.71423077     0.97300
C119        C  0.12393830  0.97910754  0.58119800     0.97100
N120        N  0.49590410  0.41299878  0.60665066    -0.05100
N121        N  0.48810919  0.38691916  0.58420506    -0.57600
N122        N  0.01761359  0.40561031  0.67903678    -0.03200
N123        N  0.03117472  0.37790463  0.69936466    -0.58800
N124        N  0.48587607  0.40660435  0.67386193    -0.05100
N125        N  0.47102192  0.37783479  0.69276524    -0.57900
N126        N  0.01910074  0.40601237  0.61171703    -0.02800
N127        N  0.03460763  0.38270267  0.58975335    -0.58900
Mn128      Mn  0.05708674  0.43855547  0.64588980     1.18400
C129        C  0.99861317  0.37183993  0.57444115     0.99400
C130        C  0.50665558  0.36667384  0.70888636     1.00000
N131        N  0.01717494  0.08623141  0.60509406    -0.05100
N132        N  0.03670294  0.10413342  0.58253514    -0.61400
N133        N  0.46441003  0.10434727  0.66670084    -0.03900
N134        N  0.44730904  0.13584396  0.68290420    -0.62100
N135        N  0.00711425  0.09792925  0.67165196    -0.04600
N136        N  0.01966408  0.12889374  0.68990103    -0.61700
N137        N  0.47004744  0.08959618  0.60021967    -0.03500
N138        N  0.45660939  0.10812081  0.57566602    -0.62400
Mn139      Mn  0.04760990  0.05446002  0.64283202     1.10700
C140        C  0.49408079  0.11935262  0.56233728     1.00600
C141        C  0.48234313  0.15484553  0.69516794     1.00700
N142        N  0.40413461  0.47166784  0.67075990    -0.04600
N143        N  0.37485408  0.45168053  0.68688381    -0.60000
N144        N  0.39933315  0.01992683  0.60355076    -0.04000
N145        N  0.38199312  0.03189417  0.57836335    -0.56700
N146        N  0.41547261  0.48059334  0.60370278    -0.05300
N147        N  0.39873958  0.46892585  0.57808089    -0.59600
N148        N  0.38962346  0.03314915  0.66942159    -0.04300
N149        N  0.35679581  0.05257686  0.68318901    -0.56800
Mn150      Mn  0.44934309  0.44175793  0.63850716     1.20200
Mn151      Mn  0.43018915  0.06246634  0.63523440     1.10100
Cl152      Cl  0.48843894  0.00377063  0.64315890    -0.84700
C153        C  0.33626122  0.01972929  0.69672056     0.97600
C154        C  0.36979350  0.99414024  0.56610914     0.97400
N155        N  0.46495799  0.40659569  0.31741524    -0.04900
N156        N  0.44753355  0.37854173  0.29906582    -0.57000
N157        N  0.01235360  0.39984779  0.39969465    -0.04600
N158        N  0.02346139  0.37917767  0.42392183    -0.59100
N159        N  0.46088731  0.40337451  0.38425370    -0.04200
N160        N  0.44174274  0.38183100  0.40550975    -0.57000
N161        N  0.02605930  0.39371124  0.33373337    -0.03800
N162        N  0.04590249  0.36188306  0.31936379    -0.59500
C163        C  0.48201276  0.35463264  0.28942384     0.97300
C164        C  0.98518683  0.36369603  0.43377969     0.97100
N165        N  0.08510771  0.00776788  0.39604079    -0.05100
N166        N  0.10604319  0.01982606  0.41994284    -0.57600
N167        N  0.09612873  0.46761868  0.33801439    -0.03200
N168        N  0.12745908  0.45031937  0.32184024    -0.58800
N169        N  0.09527001  0.00551869  0.32898237    -0.05100
N170        N  0.12747428  0.01585268  0.31117117    -0.57900
N171        N  0.08276518  0.47220112  0.40435444    -0.02800
N172        N  0.10473050  0.45890271  0.42771234    -0.58900
Mn173      Mn  0.05496828  0.43273746  0.36901615     1.18400
C174        C  0.11779787  0.49637234  0.44029958     0.99400
C175        C  0.14069664  0.97714220  0.29974784     1.00000
N176        N  0.39867748  0.48196357  0.38559336    -0.05100
N177        N  0.37941823  0.46537726  0.40863228    -0.61400
N178        N  0.40678774  0.01090819  0.31632385    -0.03900
N179        N  0.38014011  0.02541843  0.29558040    -0.62100
N180        N  0.39773573  0.48793135  0.31887129    -0.04600
N181        N  0.36633052  0.47761658  0.30034706    -0.61700
N182        N  0.39945815  0.01603111  0.38326130    -0.03500
N183        N  0.37483032  0.03376290  0.40383488    -0.62400
Mn184      Mn  0.42983087  0.44459855  0.35094415     1.10700
C185        C  0.37132021  0.50013207  0.42575856     1.00600
C186        C  0.36371798  0.98886557  0.28374025     1.00700
N187        N  0.03226668  0.08920335  0.32441252    -0.04600
N188        N  0.05367004  0.11683114  0.30779705    -0.60000
N189        N  0.47073039  0.08760065  0.38561085    -0.04000
N190        N  0.45244912  0.11257569  0.40588217    -0.56700
N191        N  0.02284772  0.08949867  0.39144591    -0.05300
N192        N  0.03692245  0.11101795  0.41461051    -0.59600
N193        N  0.48018369  0.08347014  0.31852834    -0.04300
N194        N  0.46760432  0.11033206  0.29746141    -0.56800
Mn195      Mn  0.05994054  0.04862986  0.36012990     1.20200
Mn196      Mn  0.43846922  0.05024431  0.35056901     1.10100
Cl197      Cl  0.49407875  0.49607492  0.35433431    -0.84700
C198        C  0.50545434  0.12685803  0.28765726     0.97600
C199        C  0.00025479  0.13087447  0.42502761     0.97400
C200        C  0.02268845  0.28592821  0.49216527     0.03500
C201        C  0.03634425  0.28328486  0.52154769     0.03500
C202        C  0.04821929  0.24272862  0.53333569    -0.17000
C203        C  0.04488422  0.20458757  0.51673169     0.03500
C204        C  0.03213032  0.20706768  0.48719866     0.03500
C205        C  0.02184811  0.24791151  0.47515322    -0.17000
H206        H  0.01413388  0.25029027  0.45202470     0.05500
H207        H  0.05702390  0.24044597  0.55632053     0.05500
C208        C  0.28219750  0.96745805  0.51282770     0.03500
C209        C  0.28129625  0.97884860  0.48285616     0.03500
C210        C  0.24158989  0.99365904  0.47062399    -0.17000
C211        C  0.20384669  0.99887292  0.48757876     0.03500
C212        C  0.20495232  0.98866796  0.51756838     0.03500
C213        C  0.24415028  0.97232197  0.52968274    -0.17000
H214        H  0.24602374  0.96594636  0.55300674     0.05500
H215        H  0.23954029  0.00025066  0.44733172     0.05500
C216        C  0.00271397  0.24848972  0.24914176    -0.01300
C217        C  0.47703645  0.31491539  0.27148908    -0.15200
C218        C  0.50867991  0.28386344  0.26978210    -0.30400
H219        H  0.04966183  0.28303960  0.29290611     0.13800
H220        H  0.53846192  0.28872929  0.28231678     0.14400
C221        C  0.50748659  0.16164644  0.26580685    -0.15200
C222        C  0.51022478  0.20367949  0.27400316    -0.30400
H223        H  0.06406471  0.18432811  0.26941521     0.13800
H224        H  0.51346332  0.21096884  0.29722392     0.14400
C225        C  0.99882275  0.16309531  0.44870538    -0.15200
C226        C  0.03131679  0.16811480  0.46806880    -0.30400
H227        H  0.45289561  0.18076220  0.44452104     0.13800
H228        H  0.05830425  0.14470031  0.46905729     0.14400
C229        C  0.01478989  0.32795871  0.47735880    -0.15200
C230        C  0.98216632  0.33259899  0.45790043    -0.30400
H231        H  0.03967950  0.35262520  0.47923835     0.13800
H232        H  0.44315204  0.31232978  0.44442141     0.14400
C233        C  0.14879866  0.49766101  0.46490502    -0.15200
C234        C  0.17301134  0.53291716  0.47025044    -0.30400
H235        H  0.15625111  0.46721910  0.47616201     0.13800
H236        H  0.15949636  0.04221346  0.46267939     0.14400
C237        C  0.34801251  0.49606178  0.45360640    -0.15200
C238        C  0.33186816  0.53039662  0.46809494    -0.30400
H239        H  0.33814663  0.46353408  0.45993670     0.13800
H240        H  0.34132100  0.94562091  0.46540225     0.14400
C241        C  0.16700141  0.99773296  0.53703667    -0.15200
C242        C  0.15709676  0.97013577  0.55866402    -0.30400
H243        H  0.14773996  0.02744477  0.53390416     0.13800
H244        H  0.18472156  0.44847469  0.55268953     0.14400
C245        C  0.32288387  0.95878755  0.52932861    -0.15200
C246        C  0.34521898  0.99333916  0.53840303    -0.30400
H247        H  0.33314217  0.45241477  0.53789921     0.13800
H248        H  0.33897239  0.02467198  0.52794306     0.14400
C249        C  0.00788914  0.14486761  0.53929724    -0.15200
C250        C  0.04603318  0.16329733  0.53285451    -0.30400
H251        H  0.46429230  0.15317034  0.52468323     0.13800
H252        H  0.07508953  0.15541111  0.54564706     0.14400
C253        C  0.99948054  0.34235188  0.54894851    -0.15200
C254        C  0.03656623  0.32115259  0.54140047    -0.30400
H255        H  0.56762247  0.32101976  0.55572022     0.13800
H256        H  0.06632931  0.32645009  0.55381968     0.14400
C257        C  0.06887951  0.22557209  0.21922733    -0.15200
C258        C  0.04812839  0.25531263  0.23570971    -0.30400
H259        H  0.05403588  0.19411940  0.21569437     0.13800
H260        H  0.06438072  0.28611445  0.23924977     0.14400
C261        C  0.45090881  0.26350612  0.21368208    -0.15200
C262        C  0.46368976  0.23624543  0.23509294    -0.30400
H263        H  0.47043959  0.29175335  0.20872381     0.13800
H264        H  0.44220552  0.20958105  0.24050666     0.14400
C265        C  0.28885163  0.07984928  0.03089459    -0.15200
C266        C  0.25433694  0.09869122  0.04393948    -0.30400
H267        H  0.32146657  0.08509264  0.03949263     0.13800
H268        H  0.22161788  0.09035883  0.03676812     0.14400
C269        C  0.26384414  0.41757924  0.03130603    -0.15200
C270        C  0.23295635  0.40892686  0.05115079    -0.30400
H271        H  0.29234101  0.39628657  0.02894412     0.13800
H272        H  0.20335090  0.42897057  0.05194189     0.14400
C273        C  0.25353554  0.08168545  0.96833340    -0.15200
C274        C  0.28636470  0.09830087  0.95275113    -0.30400
H275        H  0.22001600  0.09098074  0.96308486     0.13800
H276        H  0.31964511  0.08705184  0.95701556     0.14400
C277        C  0.27604044  0.42198210  0.96597227    -0.15200
C278        C  0.24105524  0.40395556  0.95354132    -0.30400
H279        H  0.30855679  0.41502308  0.95752486     0.13800
H280        H  0.20854996  0.41297392  0.96123204     0.14400
C281        C  0.51250621  0.21070080  0.72848190    -0.15200
C282        C  0.47868535  0.19450494  0.71338265    -0.30400
H283        H  0.54375038  0.19332391  0.72764567     0.13800
H284        H  0.94506869  0.20441839  0.71656391     0.14400
C285        C  0.50280894  0.29059641  0.72477653    -0.15200
C286        C  0.50731897  0.33290030  0.73184052    -0.30400
H287        H  0.99669341  0.27860189  0.70277334     0.13800
H288        H  0.51520213  0.34234391  0.75410445     0.14400
C289        C  0.04635466  0.25784238  0.76516310    -0.15200
C290        C  0.06606733  0.22740145  0.78213084    -0.30400
H291        H  0.06193167  0.28921293  0.76290949     0.13800
H292        H  0.05202829  0.19523179  0.78361286     0.14400
C293        C  0.43468994  0.27520955  0.76920928    -0.15200
C294        C  0.47004442  0.24823826  0.76796546    -0.30400
H295        H  0.43281811  0.30411478  0.75565493     0.13800
H296        H  0.47130904  0.22063368  0.78286300     0.14400
C297        C  0.29431112  0.02589088  0.71234817    -0.15200
C298        C  0.27991731  0.99672998  0.73182765    -0.30400
H299        H  0.27577181  0.05591528  0.70874832     0.13800
H300        H  0.30814753  0.54276534  0.73188260     0.15200
C301        C  0.19845346  0.00156161  0.72753500    -0.15200
C302        C  0.15613267  0.00226943  0.73594043    -0.30400
H303        H  0.22239895  0.50108203  0.70385535     0.13800
H304        H  0.14776105  0.00302613  0.75900701     0.14400
C305        C  0.23492807  0.04459146  0.76728082    -0.15200
C306        C  0.26906096  0.07088171  0.77297537    -0.30400
H307        H  0.20407008  0.05209806  0.77801318     0.13800
H308        H  0.30119550  0.06313739  0.76435638     0.14400
C309        C  0.25572295  0.46649021  0.77059524    -0.15200
C310        C  0.23148426  0.43001019  0.76977940    -0.30400
H311        H  0.28112027  0.46857660  0.78719401     0.13800
H312        H  0.20532174  0.42631271  0.75408244     0.14400
C313        C  0.08677962  0.26953451  0.03444551    -0.15200
C314        C  0.09151573  0.23791288  0.05457562    -0.30400
H315        H  0.11046891  0.29539889  0.03308872     0.13800
H316        H  0.06960185  0.21045286  0.05437181     0.14400
C317        C  0.42202214  0.28240368  0.02752304    -0.15200
C318        C  0.41499028  0.24806268  0.04494844    -0.30400
H319        H  0.39937216  0.31003282  0.02723057     0.13800
H320        H  0.43668396  0.21970965  0.04365146     0.14400
C321        C  0.08963844  0.28307144  0.96873922    -0.15200
C322        C  0.10458687  0.24586671  0.95644702    -0.30400
H323        H  0.10086988  0.31421488  0.96069460     0.13800
H324        H  0.09185281  0.21485460  0.96365868     0.14400
C325        C  0.42650622  0.30071802  0.96284292    -0.15200
C326        C  0.41245410  0.26414378  0.95029744    -0.30400
H327        H  0.41617416  0.33240733  0.95451541     0.13800
H328        H  0.42546612  0.23287815  0.95780556     0.14400
C329        C  0.28553746  0.99444605  0.27189077    -0.15200
C330        C  0.32712739  0.98937662  0.26255737    -0.30400
H331        H  0.28027912  0.46925080  0.28614646     0.13800
H332        H  0.33431664  0.98732596  0.23933780     0.14400
C333        C  0.20508708  0.00337471  0.27198902    -0.15200
C334        C  0.17798732  0.97084837  0.27943188    -0.30400
H335        H  0.17903685  0.53826661  0.26757925     0.13800
H336        H  0.18375067  0.93811270  0.27119244     0.14400
C337        C  0.24469287  0.03866268  0.23212696    -0.15200
C338        C  0.27643415  0.06856212  0.22957599    -0.30400
H339        H  0.21559942  0.04323358  0.21865884     0.13800
H340        H  0.30660949  0.06565161  0.24184003     0.14400
C341        C  0.26391269  0.43631368  0.21935544    -0.15200
C342        C  0.23182280  0.45614539  0.23477634    -0.30400
H343        H  0.29564149  0.45156301  0.21851118     0.13800
H344        H  0.20041674  0.44027479  0.23613992     0.14400
C345        C  0.24499103  0.99811647  0.25189501    -0.01300
C346        C  0.45603953  0.73010336  0.01590230     0.03500
C347        C  0.45473240  0.74948542  0.98778298     0.03500
C348        C  0.99668287  0.78000777  0.96797098    -0.17000
C349        C  0.03450415  0.77983861  0.98522726     0.03500
C350        C  0.03091159  0.77689601  0.01581577     0.03500
C351        C  0.98941212  0.77242316  0.02830192    -0.17000
H352        H  0.98632707  0.77051485  0.05191593     0.05500
H353        H  0.99978059  0.78312090  0.94441687     0.05500
C354        C  0.25072223  0.50551288  0.74957345    -0.01300
C355        C  0.98913303  0.75202549  0.75290311    -0.01300
C356        C  0.25702941  0.96200444  0.98635062     0.03500
C357        C  0.27592815  0.96135909  0.01452675     0.03500
C358        C  0.25350180  0.49763094  0.03011376    -0.17000
C359        C  0.25194759  0.53804383  0.01587744     0.03500
C360        C  0.25847219  0.53976081  0.98549565     0.03500
C361        C  0.26784318  0.50119414  0.97011510    -0.17000
H362        H  0.27199277  0.50227053  0.94654944     0.05500
H363        H  0.24997546  0.49648092  0.05371293     0.05500
N364        N  0.20801022  0.84768832  0.88899000    -0.04900
N365        N  0.18979274  0.86906588  0.91099838    -0.57000
N366        N  0.24806719  0.85175865  0.82195273    -0.04600
N367        N  0.25768095  0.88210012  0.80266705    -0.59100
N368        N  0.20572378  0.84469192  0.82180254    -0.04200
N369        N  0.18583061  0.86979825  0.80220176    -0.57000
N370        N  0.25058224  0.85247672  0.88920918    -0.03800
N371        N  0.26238862  0.87679569  0.91158406    -0.59500
C372        C  0.22414138  0.88653277  0.92504850     0.97300
C373        C  0.21867127  0.89278908  0.79040449     0.97100
N374        N  0.33957626  0.74717223  0.82270081    -0.05100
N375        N  0.37025836  0.73585720  0.80376728    -0.57600
N376        N  0.33406297  0.79190984  0.88935541    -0.03200
N377        N  0.35518006  0.81045835  0.91122407    -0.58800
N378        N  0.34029467  0.74946144  0.89003119    -0.05100
N379        N  0.36518405  0.73812344  0.91253199    -0.57900
N380        N  0.33220158  0.78954700  0.82180004    -0.02800
N381        N  0.35711626  0.80776198  0.80185776    -0.58900
Mn382      Mn  0.29199899  0.82248142  0.85539884     1.18400
C383        C  0.38050088  0.77390463  0.79077147     0.99400
C384        C  0.37401128  0.77643977  0.92566313     1.00000
N385        N  0.14359269  0.76169759  0.82555648    -0.05100
N386        N  0.11070544  0.77104387  0.80764916    -0.61400
N387        N  0.15632172  0.72463570  0.89414437    -0.03900
N388        N  0.13764747  0.70897186  0.91789168    -0.62100
N389        N  0.14983606  0.76702101  0.89260161    -0.04600
N390        N  0.12720275  0.78119196  0.91529744    -0.61700
N391        N  0.15050311  0.71923279  0.82675196    -0.03500
N392        N  0.12263898  0.69904829  0.80946838    -0.62400
Mn393      Mn  0.17582364  0.80593669  0.85680392     1.10700
C394        C  0.09812264  0.73168747  0.79759948     1.00600
C395        C  0.12004946  0.74473916  0.93097260     1.00700
N396        N  0.28197870  0.66857599  0.89194420    -0.04600
N397        N  0.30326707  0.64616147  0.91215089    -0.60000
N398        N  0.23592675  0.65636505  0.82671893    -0.04000
N399        N  0.22574667  0.62207587  0.81063456    -0.56700
N400        N  0.27842339  0.66279003  0.82576753    -0.05300
N401        N  0.29774492  0.63271936  0.80940006    -0.59600
N402        N  0.23967438  0.66260150  0.89388012    -0.04300
N403        N  0.23126465  0.63600550  0.91583423    -0.56800
Mn404      Mn  0.31084048  0.70659820  0.85721826     1.20200
Mn405      Mn  0.19471428  0.68975057  0.86024663     1.10100
Cl406      Cl  0.24330058  0.75611721  0.85692624    -0.84700
C407        C  0.27134201  0.62654846  0.92711483     0.97600
C408        C  0.26461637  0.60794300  0.79975040     0.97400
N409        N  0.14973733  0.73699244  0.18208302    -0.04900
N410        N  0.11986951  0.72546405  0.20129757    -0.57000
N411        N  0.14740667  0.77482300  0.11336074    -0.04600
N412        N  0.12323568  0.78866539  0.09107524    -0.59100
N413        N  0.14504456  0.73223404  0.11579408    -0.04200
N414        N  0.11911938  0.71621178  0.09563333    -0.57000
N415        N  0.15192019  0.77978586  0.18060182    -0.03800
N416        N  0.12402903  0.79804035  0.19908953    -0.59500
C417        C  0.10442042  0.76387179  0.21187043     0.97300
C418        C  0.10618617  0.75151728  0.08024136     0.97100
N419        N  0.26535007  0.84040063  0.10706604    -0.05100
N420        N  0.27975839  0.86131046  0.08381950    -0.57600
N421        N  0.22950850  0.84795315  0.17594759    -0.03200
N422        N  0.21885081  0.87708914  0.19620484    -0.58800
N423        N  0.27228139  0.84309344  0.17459844    -0.05100
N424        N  0.29152313  0.86812072  0.19405352    -0.57900
N425        N  0.22252923  0.84313801  0.10842676    -0.02800
N426        N  0.20684216  0.86606643  0.08614716    -0.58900
Mn427      Mn  0.18691743  0.81255168  0.14470322     1.18400
C428        C  0.24288706  0.87700528  0.07089924     0.99400
C429        C  0.25795965  0.88908527  0.20739316     1.00000
N430        N  0.21217508  0.65569900  0.11434097    -0.05100
N431        N  0.19265506  0.63139756  0.09458673    -0.61400
N432        N  0.26315742  0.65391873  0.17818109    -0.03900
N433        N  0.27850862  0.62512855  0.19735680    -0.62100
N434        N  0.22046151  0.65845776  0.18103594    -0.04600
N435        N  0.20602428  0.63307636  0.20210173    -0.61700
N436        N  0.25481228  0.65373531  0.11099535    -0.03500
N437        N  0.26524192  0.62842917  0.08864735    -0.62400
Mn438      Mn  0.18119543  0.69520686  0.14877236     1.10700
C439        C  0.22608666  0.61512178  0.07854931     1.00600
C440        C  0.24250946  0.61276167  0.21218477     1.00700
N441        N  0.34122498  0.76512759  0.17251920    -0.04600
N442        N  0.36891053  0.77923958  0.19245352    -0.60000
N443        N  0.33098494  0.72131874  0.10517672    -0.04000
N444        N  0.34974235  0.70606217  0.08100652    -0.56700
N445        N  0.33171489  0.76412662  0.10526060    -0.05300
N446        N  0.34996600  0.77893731  0.08130486    -0.59600
N447        N  0.33976598  0.72229434  0.17300687    -0.04300
N448        N  0.36639737  0.70637518  0.19333695    -0.56800
Mn449      Mn  0.30361114  0.80384201  0.14010113     1.20200
Mn450      Mn  0.29841033  0.68663690  0.14180905     1.10100
Cl451      Cl  0.24253872  0.74955086  0.14420812    -0.84700
C452        C  0.38422707  0.74230622  0.20521982     0.97600
C453        C  0.36102838  0.74271264  0.06633326     0.97400
N454        N  0.09755599  0.51818312  0.67675340    -0.04900
N455        N  0.12475646  0.53312483  0.69664490    -0.57000
N456        N  0.08214259  0.96764471  0.61649766    -0.04600
N457        N  0.10647045  0.94692929  0.59709200    -0.59100
N458        N  0.09555325  0.51321505  0.60954887    -0.04200
N459        N  0.12039826  0.52391405  0.58717601    -0.57000
N460        N  0.07526839  0.97707619  0.68313293    -0.03800
N461        N  0.10208378  0.96355305  0.70419512    -0.59500
C462        C  0.13803446  0.49701819  0.71121698     0.97300
C463        C  0.13347242  0.48486657  0.57611066     0.97100
N464        N  0.46902586  0.90449041  0.61673956    -0.05100
N465        N  0.45534979  0.87832039  0.59582139    -0.57600
N466        N  0.99694379  0.90661699  0.68106254    -0.03200
N467        N  0.00764237  0.87619723  0.70041963    -0.58800
N468        N  0.46484656  0.91583705  0.68352370    -0.05100
N469        N  0.44964833  0.88932641  0.70382097    -0.57900
N470        N  0.00619455  0.90291312  0.61381562    -0.02800
N471        N  0.02298504  0.88163205  0.59117322    -0.58900
Mn472      Mn  0.04083445  0.93763866  0.64923541     1.18400
C473        C  0.98764279  0.87203852  0.57458597     0.99400
C474        C  0.48608959  0.87422234  0.71769025     1.00000
N475        N  0.02621818  0.59090046  0.60803694    -0.05100
N476        N  0.04007238  0.60991139  0.58389197    -0.61400
N477        N  0.46394760  0.59598377  0.68137857    -0.03900
N478        N  0.44343129  0.62430010  0.69853184    -0.62100
N479        N  0.03071577  0.59795945  0.67492384    -0.04600
N480        N  0.04864371  0.62975121  0.69005396    -0.61700
N481        N  0.47236892  0.59937695  0.61421866    -0.03500
N482        N  0.45809038  0.61821352  0.58995864    -0.62400
Mn483      Mn  0.06357624  0.55579723  0.64220433     1.10700
C484        C  0.49486694  0.63276859  0.57728212     1.00600
C485        C  0.47608746  0.64678035  0.71118235     1.00700
N486        N  0.38905173  0.99069200  0.67374455    -0.04600
N487        N  0.35578402  0.98069934  0.69081682    -0.60000
N488        N  0.41120934  0.52300133  0.60710660    -0.04000
N489        N  0.39263238  0.54109234  0.58405633    -0.56700
N490        N  0.39799725  0.97742481  0.60683090    -0.05300
N491        N  0.37927336  0.95953667  0.58367565    -0.59600
N492        N  0.39991017  0.51424357  0.67367542    -0.04300
N493        N  0.36759146  0.52393452  0.69180267    -0.56800
Mn494      Mn  0.42914907  0.94611864  0.64570919     1.20200
Mn495      Mn  0.43579715  0.55868069  0.64468165     1.10100
Cl496      Cl  0.50044104  0.50583391  0.64616156    -0.84700
C497        C  0.35253472  0.48457810  0.70004799     0.97600
C498        C  0.38504207  0.50742657  0.56610947     0.97400
N499        N  0.48153742  0.89206717  0.32525733    -0.04900
N500        N  0.47085579  0.85965411  0.30755060    -0.57000
N501        N  0.00087151  0.90509940  0.39367725    -0.04600
N502        N  0.01169503  0.88076623  0.41645072    -0.59100
N503        N  0.47107193  0.90041487  0.39218862    -0.04200
N504        N  0.45353504  0.87824261  0.41384503    -0.57000
N505        N  0.00514417  0.89912131  0.32656365    -0.03800
N506        N  0.01639002  0.86555617  0.30982394    -0.59500
C507        C  0.50979650  0.84038495  0.30068017     0.97300
C508        C  0.97292321  0.87147630  0.42884542     0.97100
N509        N  0.08263843  0.51490956  0.40264966    -0.05100
N510        N  0.10448317  0.53166310  0.42476258    -0.57600
N511        N  0.08913610  0.96310478  0.32866419    -0.03200
N512        N  0.11717051  0.94390041  0.31062295    -0.58800
N513        N  0.09549037  0.51040761  0.33575413    -0.05100
N514        N  0.12675264  0.52294380  0.31766805    -0.57900
N515        N  0.07993187  0.96537839  0.39588339    -0.02800
N516        N  0.09690002  0.94767572  0.41972924    -0.58900
Mn517      Mn  0.04468848  0.93225542  0.36071671     1.18400
C518        C  0.11284702  0.98195385  0.43455867     0.99400
C519        C  0.14607992  0.48484343  0.30903235     1.00000
N520        N  0.39941783  0.97328162  0.38525830    -0.05100
N521        N  0.37501593  0.96110869  0.40763318    -0.61400
N522        N  0.40199967  0.53052110  0.32018911    -0.03900
N523        N  0.37396410  0.54986615  0.30208564    -0.62100
N524        N  0.40640692  0.96797499  0.31752620    -0.04600
N525        N  0.37927533  0.95267155  0.29752372    -0.61700
N526        N  0.40238380  0.52438640  0.38819693    -0.03500
N527        N  0.38533268  0.53757417  0.41337302    -0.62400
Mn528      Mn  0.43851408  0.93244536  0.35459795     1.10700
C529        C  0.36014407  0.99934105  0.41903963     1.00600
C530        C  0.35208146  0.51647707  0.28982301     1.00700
N531        N  0.01854724  0.58375327  0.32921069    -0.04600
N532        N  0.03524386  0.61102311  0.31002898    -0.60000
N533        N  0.47935557  0.59004729  0.39120141    -0.04000
N534        N  0.46485015  0.61714028  0.41152092    -0.56700
N535        N  0.00849054  0.58487713  0.39626867    -0.05300
N536        N  0.01955371  0.61085369  0.41803125    -0.59600
N537        N  0.48421947  0.59495181  0.32439742    -0.04300
N538        N  0.47402561  0.62601006  0.30535648    -0.56800
Mn539      Mn  0.05220739  0.54950028  0.36563916     1.20200
Mn540      Mn  0.44100824  0.56104293  0.35568154     1.10100
Cl541      Cl  0.49695431  0.99114161  0.35581945    -0.84700
C542        C  0.51328981  0.63834456  0.29483560     0.97600
C543        C  0.98082474  0.62628312  0.42827794     0.97400
C544        C  0.00471072  0.79063581  0.48872286     0.03500
C545        C  0.02273519  0.78998033  0.51721439     0.03500
C546        C  0.03470381  0.75022019  0.53000244    -0.17000
C547        C  0.02782726  0.71076932  0.51561164     0.03500
C548        C  0.00933640  0.71062479  0.48728400     0.03500
C549        C  0.99801269  0.75078492  0.47413737    -0.17000
H550        H  0.98672876  0.75119240  0.45164304     0.05500
H551        H  0.04734761  0.74981298  0.55222719     0.05500
C552        C  0.29325058  0.49986008  0.51266056     0.03500
C553        C  0.29295251  0.52418513  0.48632252     0.03500
C554        C  0.25299622  0.53781900  0.47406369    -0.17000
C555        C  0.21352106  0.52845849  0.48772420     0.03500
C556        C  0.21404557  0.50908567  0.51555685     0.03500
C557        C  0.25381280  0.49381409  0.52736759    -0.17000
H558        H  0.25455986  0.47909182  0.54893795     0.05500
H559        H  0.25250097  0.55297880  0.45260171     0.05500
C560        C  0.00023852  0.74034786  0.25877816    -0.01300
C561        C  0.51564506  0.79863499  0.28467609    -0.15200
C562        C  0.48905371  0.78600845  0.26289228    -0.30400
H563        H  0.94037387  0.81018509  0.26897404     0.13800
H564        H  0.46192124  0.80759220  0.25691980     0.14400
C565        C  0.52046186  0.67424467  0.27401214    -0.15200
C566        C  0.48961409  0.70480198  0.26766801    -0.30400
H567        H  0.99579828  0.65156569  0.24993938     0.13800
H568        H  0.45829724  0.70273330  0.27868584     0.14400
C569        C  0.97645235  0.66169782  0.45005163    -0.15200
C570        C  0.00805227  0.66976558  0.46974533    -0.30400
H571        H  0.47387560  0.68734752  0.44657491     0.13800
H572        H  0.03513706  0.64665693  0.47213350     0.14400
C573        C  0.00065159  0.83185684  0.47190651    -0.15200
C574        C  0.96823279  0.83934852  0.45254145    -0.30400
H575        H  0.02759605  0.85437480  0.47324568     0.13800
H576        H  0.45899508  0.81332056  0.45537827     0.14400
C577        C  0.13979781  0.97689206  0.46101815    -0.15200
C578        C  0.16316529  0.00969933  0.47181484    -0.30400
H579        H  0.14600539  0.94395295  0.46892039     0.13800
H580        H  0.16836101  0.56207755  0.45704775     0.14400
C581        C  0.32766174  0.00423293  0.44261231    -0.15200
C582        C  0.32009908  0.97418698  0.46337702    -0.30400
H583        H  0.30844596  0.03433155  0.44252775     0.13800
H584        H  0.33861404  0.56306436  0.46037017     0.14400
C585        C  0.17457174  0.51049066  0.53400068    -0.15200
C586        C  0.16602811  0.47887966  0.55308272    -0.30400
H587        H  0.15363965  0.53943666  0.53306434     0.13800
H588        H  0.17414400  0.93883736  0.56000241     0.14400
C589        C  0.33339233  0.48458814  0.52797497    -0.15200
C590        C  0.36084539  0.51404789  0.53850880    -0.30400
H591        H  0.32604101  0.92820903  0.54116158     0.13800
H592        H  0.35777979  0.54746376  0.53077894     0.14400
C593        C  0.99997936  0.65131201  0.54434340    -0.15200
C594        C  0.03483834  0.67087390  0.53305969    -0.30400
H595        H  0.46474736  0.67567461  0.54433977     0.13800
H596        H  0.06695581  0.66494560  0.54259025     0.14400
C597        C  0.98836168  0.84634781  0.54726262    -0.15200
C598        C  0.02522638  0.82883532  0.53623678    -0.30400
H599        H  0.46798003  0.80546151  0.56084274     0.13800
H600        H  0.05625618  0.83540216  0.54681547     0.14400
C601        C  0.06738349  0.76893445  0.23221706    -0.15200
C602        C  0.03906830  0.73661529  0.23767616    -0.30400
H603        H  0.06260164  0.80103622  0.24166724     0.13800
H604        H  0.04351675  0.70596351  0.22606992     0.14400
C605        C  0.41698432  0.74159017  0.22880137    -0.15200
C606        C  0.46002211  0.73980242  0.22273045    -0.30400
H607        H  0.40572272  0.74516319  0.25119250     0.13800
H608        H  0.46969661  0.73705647  0.19987720     0.14400
C609        C  0.24943610  0.57801323  0.03379626    -0.15200
C610        C  0.22086711  0.58201683  0.05580132    -0.30400
H611        H  0.27366522  0.60291691  0.03023974     0.13800
H612        H  0.19469057  0.55883215  0.05816274     0.14400
C613        C  0.27831236  0.92177874  0.03300145    -0.15200
C614        C  0.24178761  0.90614896  0.04511679    -0.30400
H615        H  0.31005424  0.91174175  0.04157517     0.13800
H616        H  0.21013524  0.91871560  0.03789937     0.14400
C617        C  0.25183168  0.58055804  0.96885506    -0.15200
C618        C  0.28064282  0.59221397  0.94853769    -0.30400
H619        H  0.22216886  0.59980474  0.97234065     0.13800
H620        H  0.31164197  0.57460946  0.94670698     0.14400
C621        C  0.25237039  0.92165025  0.96906088    -0.15200
C622        C  0.21994891  0.91709248  0.94956104    -0.30400
H623        H  0.27903950  0.89782307  0.96978737     0.13800
H624        H  0.19163114  0.93891788  0.94997978     0.14400
C625        C  0.49916477  0.71645000  0.73330379    -0.15200
C626        C  0.46863018  0.68552407  0.72980705    -0.30400
H627        H  0.52985668  0.71274110  0.72154356     0.13800
H628        H  0.04810503  0.71149835  0.71516251     0.14400
C629        C  0.49013276  0.79664237  0.73058569    -0.15200
C630        C  0.48689334  0.83857775  0.73930327    -0.30400
H631        H  0.01824717  0.78986849  0.71591876     0.13800
H632        H  0.48603870  0.84668002  0.76242878     0.14400
C633        C  0.02997482  0.75617661  0.77233594    -0.15200
C634        C  0.05958515  0.72427294  0.77853485    -0.30400
H635        H  0.03460098  0.78789433  0.78238766     0.13800
H636        H  0.05495359  0.69137393  0.77069236     0.14400
C637        C  0.41649186  0.77920333  0.76989993    -0.15200
C638        C  0.45323532  0.75444120  0.77172299    -0.30400
H639        H  0.41296331  0.80521060  0.75404259     0.13800
H640        H  0.45467563  0.72907113  0.78833449     0.14400
C641        C  0.31306417  0.47796415  0.71795478    -0.15200
C642        C  0.29338003  0.51082748  0.73263207    -0.30400
H643        H  0.29945811  0.44555133  0.71872014     0.13800
H644        H  0.30017242  0.96775738  0.73564983     0.15200
C645        C  0.21408581  0.50041476  0.72701350    -0.15200
C646        C  0.17164269  0.49736936  0.73416135    -0.30400
H647        H  0.20532509  0.99988404  0.70420502     0.13800
H648        H  0.16160281  0.49647554  0.75692356     0.14400
C649        C  0.24147237  0.54725718  0.76728514    -0.15200
C650        C  0.27200353  0.56622012  0.78411101    -0.30400
H651        H  0.20992512  0.56377885  0.76503605     0.13800
H652        H  0.30451149  0.55159917  0.78549009     0.14400
C653        C  0.23726811  0.96429198  0.77068557    -0.15200
C654        C  0.21195971  0.92880934  0.76945588    -0.30400
H655        H  0.26251158  0.96512504  0.78749730     0.13800
H656        H  0.18599241  0.92582068  0.75347791     0.14400
C657        C  0.06934148  0.77811883  0.03542443    -0.15200
C658        C  0.07311425  0.74913612  0.05721097    -0.30400
H659        H  0.09368642  0.80303515  0.03241043     0.13800
H660        H  0.05059625  0.72219671  0.05836499     0.14400
C661        C  0.41665726  0.71550701  0.03166312    -0.15200
C662        C  0.38618987  0.74526208  0.03896651    -0.30400
H663        H  0.41924692  0.68560995  0.04434413     0.13800
H664        H  0.38681439  0.77702588  0.02845253     0.14400
C665        C  0.07668529  0.77987370  0.96982569    -0.15200
C666        C  0.09083295  0.74331113  0.95645160    -0.30400
H667        H  0.09041673  0.81116370  0.96423616     0.13800
H668        H  0.07638383  0.71228834  0.96194490     0.14400
C669        C  0.41545161  0.74803889  0.96851458    -0.15200
C670        C  0.40492455  0.78115994  0.95026378    -0.30400
H671        H  0.39683351  0.71825011  0.96790908     0.13800
H672        H  0.42140728  0.81205981  0.95234223     0.14400
C673        C  0.27958038  0.49579944  0.27039494    -0.15200
C674        C  0.31445363  0.52236960  0.26972432    -0.30400
H675        H  0.28043316  0.99636233  0.29543627     0.13800
H676        H  0.31533622  0.55028336  0.25533203     0.14400
C677        C  0.19851790  0.50864363  0.27054777    -0.15200
C678        C  0.18565933  0.47973202  0.29076657    -0.30400
H679        H  0.19997936  0.03507812  0.28217838     0.13800
H680        H  0.20366094  0.44908175  0.29287814     0.14400
C681        C  0.24142263  0.53615005  0.22801500    -0.15200
C682        C  0.24208741  0.57884532  0.23497779    -0.30400
H683        H  0.24161482  0.52734574  0.20494417     0.13800
H684        H  0.24039077  0.58903568  0.25770924     0.14400
C685        C  0.26456513  0.92293984  0.22987241    -0.15200
C686        C  0.23877967  0.95887891  0.23139767    -0.30400
H687        H  0.29304052  0.91899636  0.24373228     0.13800
H688        H  0.21087592  0.96085294  0.21661504     0.14400
C689        C  0.74841196  0.49761761  0.24963383    -0.01300
C690        C  0.96700054  0.27365989  0.01347882     0.03500
C691        C  0.96902688  0.28662585  0.98389447     0.03500
C692        C  0.50611569  0.29965952  0.96769687    -0.17000
C693        C  0.54479140  0.28907194  0.98264169     0.03500
C694        C  0.54340507  0.27898625  0.01258571     0.03500
C695        C  0.50276376  0.27719129  0.02658330    -0.17000
H696        H  0.50152816  0.27050743  0.04986948     0.05500
H697        H  0.50737626  0.30691097  0.94446581     0.05500
C698        C  0.74025615  0.99508030  0.75145140    -0.01300
C699        C  0.50855062  0.25265734  0.74650456    -0.01300
C700        C  0.77232663  0.46001884  0.98647613     0.03500
C701        C  0.78283950  0.45809905  0.01641342     0.03500
C702        C  0.77201843  0.99357615  0.02698515    -0.17000
C703        C  0.78125238  0.03413258  0.01430531     0.03500
C704        C  0.79793291  0.03518203  0.98550606     0.03500
C705        C  0.80352444  0.99622805  0.96994370    -0.17000
H706        H  0.81403413  0.99737047  0.94728386     0.05500
H707        H  0.76250288  0.99225826  0.04979744     0.05500
N708        N  0.72605331  0.33943980  0.89074044    -0.04900
N709        N  0.70873575  0.36324541  0.91194591    -0.57000
N710        N  0.76742389  0.34361086  0.82427821    -0.04600
N711        N  0.77830028  0.37606449  0.80677233    -0.59100
N712        N  0.72476495  0.33850119  0.82381463    -0.04200
N713        N  0.70597089  0.36690464  0.80596591    -0.57000
N714        N  0.76887298  0.34159213  0.89138276    -0.03800
N715        N  0.78170488  0.36665863  0.91316034    -0.59500
C716        C  0.74379056  0.37960955  0.92589929     0.97300
C717        C  0.73954305  0.38996410  0.79539464     0.97100
N718        N  0.85228737  0.23180913  0.82397786    -0.05100
N719        N  0.88221366  0.22011088  0.80438499    -0.57600
N720        N  0.84711201  0.27446179  0.89156106    -0.03200
N721        N  0.86733955  0.29061892  0.91466198    -0.58800
N722        N  0.85068754  0.23172173  0.89148131    -0.05100
N723        N  0.87296828  0.21785553  0.91449751    -0.57900
N724        N  0.84682005  0.27453303  0.82380560    -0.02800
N725        N  0.87186357  0.29242755  0.80384128    -0.58900
Mn726      Mn  0.80852341  0.30929504  0.85757610     1.18400
C727        C  0.89379084  0.25837678  0.79189246     0.99400
C728        C  0.88311029  0.25479179  0.92875850     1.00000
N729        N  0.65722133  0.25908930  0.82542515    -0.05100
N730        N  0.62463543  0.27058504  0.80776645    -0.61400
N731        N  0.66502051  0.22064900  0.89411562    -0.03900
N732        N  0.64445760  0.20691265  0.91778471    -0.62100
N733        N  0.66214717  0.26330419  0.89239554    -0.04600
N734        N  0.64019993  0.27957043  0.91464805    -0.61700
N735        N  0.66064576  0.21627783  0.82693551    -0.03500
N736        N  0.63045244  0.19802346  0.81056563    -0.62400
Mn737      Mn  0.69184396  0.30052661  0.85758822     1.10700
C738        C  0.60861091  0.23210040  0.79843128     1.00600
C739        C  0.62943945  0.24428960  0.93039410     1.00700
N740        N  0.78577617  0.15559430  0.89342408    -0.04600
N741        N  0.80264268  0.13639803  0.91694126    -0.60000
N742        N  0.74117767  0.14775455  0.82672836    -0.04000
N743        N  0.72841640  0.11669598  0.80863455    -0.56700
N744        N  0.78399980  0.15169324  0.82558117    -0.05300
N745        N  0.80093982  0.12363141  0.80661611    -0.59600
N746        N  0.74290914  0.15380350  0.89404815    -0.04300
N747        N  0.72966879  0.13370015  0.91781468    -0.56800
Mn748      Mn  0.81933561  0.19171562  0.85816466     1.20200
Mn749      Mn  0.70172264  0.18357968  0.86025249     1.10100
Cl750      Cl  0.75538316  0.24623120  0.85780735    -0.84700
C751        C  0.76706749  0.12313732  0.93194606     0.97600
C752        C  0.76603091  0.10211018  0.79609491     0.97400
N753        N  0.65812793  0.23342120  0.17686909    -0.04900
N754        N  0.62749753  0.22243464  0.19575064    -0.57000
N755        N  0.66019302  0.26979923  0.10820787    -0.04600
N756        N  0.63666714  0.28344612  0.08559195    -0.59100
N757        N  0.65837817  0.22716344  0.11037110    -0.04200
N758        N  0.63335989  0.21090608  0.08973022    -0.57000
N759        N  0.66085520  0.27617266  0.17547002    -0.03800
N760        N  0.63279736  0.29495113  0.19354987    -0.59500
C761        C  0.61232074  0.26122060  0.20608711     0.97300
C762        C  0.62053266  0.24620469  0.07425365     0.97100
N763        N  0.77730961  0.33599025  0.10485013    -0.05100
N764        N  0.79217674  0.35481342  0.08100125    -0.57600
N765        N  0.73730270  0.34574384  0.17270183    -0.03200
N766        N  0.72488463  0.37519337  0.19241242    -0.58800
N767        N  0.78022208  0.34170815  0.17251555    -0.05100
N768        N  0.79770296  0.36758122  0.19227864    -0.57900
N769        N  0.73442384  0.33762965  0.10522644    -0.02800
N770        N  0.71903991  0.35739275  0.08166354    -0.58900
Mn771      Mn  0.69733965  0.30844904  0.14056268     1.18400
C772        C  0.75537545  0.36772991  0.06675567     0.99400
C773        C  0.76302587  0.38833493  0.20455437     1.00000
N774        N  0.72778483  0.15191903  0.11109906    -0.05100
N775        N  0.71108270  0.12782986  0.08999604    -0.61400
N776        N  0.77323933  0.15314699  0.17731829    -0.03900
N777        N  0.78782380  0.12626531  0.19788307    -0.62100
N778        N  0.73029631  0.15644675  0.17842677    -0.04600
N779        N  0.71485535  0.13204143  0.19965287    -0.61700
N780        N  0.77070636  0.15088360  0.10972589    -0.03500
N781        N  0.78409649  0.12654182  0.08756250    -0.62400
Mn782      Mn  0.69284105  0.19131877  0.14455763     1.10700
C783        C  0.74657234  0.11263843  0.07534058     1.00600
C784        C  0.75106032  0.11391512  0.21177781     1.00700
N785        N  0.85106663  0.26458507  0.17283393    -0.04600
N786        N  0.87899603  0.27915401  0.19244674    -0.60000
N787        N  0.84617264  0.21890883  0.10657622    -0.04000
N788        N  0.87002826  0.20229158  0.08505898    -0.56700
N789        N  0.84666157  0.26169207  0.10558949    -0.05300
N790        N  0.87017452  0.27510067  0.08326997    -0.59600
N791        N  0.84937439  0.22179152  0.17395724    -0.04300
N792        N  0.87585992  0.20634276  0.19448051    -0.56800
Mn793      Mn  0.81466621  0.30191613  0.13916185     1.20200
Mn794      Mn  0.81078571  0.18505688  0.14198906     1.10100
Cl795      Cl  0.75390509  0.24668950  0.14195186    -0.84700
C796        C  0.89404488  0.24249279  0.20569930     0.97600
C797        C  0.88424547  0.23776420  0.07048416     0.97400
N798        N  0.58198883  0.03082226  0.67668877    -0.04900
N799        N  0.61102583  0.04968968  0.69367960    -0.57000
N800        N  0.59782546  0.49676450  0.61693445    -0.04600
N801        N  0.62027338  0.48617269  0.59334560    -0.59100
N802        N  0.58357958  0.01687726  0.60990972    -0.04200
N803        N  0.60660618  0.02626190  0.58638885    -0.57000
N804        N  0.59468945  0.49230398  0.68388270    -0.03800
N805        N  0.62752486  0.48050351  0.70123811    -0.59500
C806        C  0.63088470  0.01618490  0.70779685     0.97300
C807        C  0.62032098  0.98668519  0.57659281     0.97100
N808        N  0.97628948  0.40949221  0.61007378    -0.05100
N809        N  0.96171675  0.38822405  0.58691791    -0.57600
N810        N  0.52809837  0.41223176  0.67794533    -0.03200
N811        N  0.54262035  0.38772669  0.69980364    -0.58800
N812        N  0.97464125  0.40721387  0.67793210    -0.05100
N813        N  0.95809406  0.38079117  0.69778891    -0.57900
N814        N  0.53822614  0.41629642  0.61088974    -0.02800
N815        N  0.56001098  0.39243894  0.59157468    -0.58900
Mn816      Mn  0.56568609  0.45350150  0.64780824     1.18400
C817        C  0.52850496  0.37474158  0.57481270     0.99400
C818        C  0.99380296  0.36303714  0.71107800     1.00000
N819        N  0.51284038  0.08949891  0.60185446    -0.05100
N820        N  0.52959541  0.10820272  0.57853940    -0.61400
N821        N  0.96428317  0.09950621  0.66856125    -0.03900
N822        N  0.94700439  0.13120837  0.68440429    -0.62100
N823        N  0.50738500  0.10422083  0.66852664    -0.04600
N824        N  0.52027549  0.13564903  0.68623534    -0.61700
N825        N  0.97453011  0.08908183  0.60219556    -0.03500
N826        N  0.96402004  0.10888010  0.57746639    -0.62400
Mn827      Mn  0.54728435  0.06127426  0.63949313     1.10700
C828        C  0.00311211  0.11780358  0.56543199     1.00600
C829        C  0.98162460  0.14905351  0.69778556     1.00700
N830        N  0.90690201  0.48545156  0.67777924    -0.04600
N831        N  0.87958379  0.47098726  0.69762587    -0.60000
N832        N  0.89993734  0.02376163  0.60105628    -0.04000
N833        N  0.88440756  0.03820203  0.57591386    -0.56700
N834        N  0.90655162  0.48762592  0.61049337    -0.05300
N835        N  0.87997967  0.47660853  0.58888665    -0.59600
N836        N  0.88634154  0.03175109  0.66738708    -0.04300
N837        N  0.85491844  0.05089092  0.68280888    -0.56800
Mn838      Mn  0.93995118  0.44647300  0.64385585     1.20200
Mn839      Mn  0.93053157  0.06187239  0.63504075     1.10100
Cl840      Cl  0.98559901  0.99997898  0.64273918    -0.84700
C841        C  0.83412435  0.01737098  0.69561726     0.97600
C842        C  0.87085004  0.00187337  0.56241935     0.97400
N843        N  0.98370179  0.39351728  0.32851711    -0.04900
N844        N  0.97400720  0.36148171  0.31044358    -0.57000
N845        N  0.50353175  0.39936804  0.38628652    -0.04600
N846        N  0.51450795  0.37546190  0.40923345    -0.59100
N847        N  0.97019647  0.39696495  0.39481188    -0.04200
N848        N  0.95161671  0.37401436  0.41565443    -0.57000
N849        N  0.50764638  0.40038919  0.31906356    -0.03800
N850        N  0.51980148  0.36763206  0.30193596    -0.59500
C851        C  0.01325460  0.34244697  0.30477189     0.97300
C852        C  0.47558775  0.36509898  0.42105410     0.97100
N853        N  0.58445350  0.01533427  0.39549927    -0.05100
N854        N  0.60193956  0.03219794  0.41926531    -0.57600
N855        N  0.58972381  0.46497869  0.32415033    -0.03200
N856        N  0.61995325  0.44691355  0.30728132    -0.58800
N857        N  0.59692899  0.00883915  0.32861591    -0.05100
N858        N  0.62868360  0.02080286  0.31081811    -0.57900
N859        N  0.58220196  0.46091785  0.39076302    -0.02800
N860        N  0.60285045  0.44111772  0.41251608    -0.58900
Mn861      Mn  0.54643607  0.43068482  0.35467766     1.18400
C862        C  0.61871590  0.47425780  0.42851625     0.99400
C863        C  0.64743088  0.98247735  0.30232376     1.00000
N864        N  0.89767672  0.46570063  0.38752454    -0.05100
N865        N  0.87287013  0.44826988  0.40761576    -0.61400
N866        N  0.90598618  0.03112791  0.31862646    -0.03900
N867        N  0.88013731  0.04866482  0.29844830    -0.62100
N868        N  0.90635256  0.46638729  0.32104097    -0.04600
N869        N  0.88038636  0.45153438  0.30017643    -0.61700
N870        N  0.90138842  0.03575944  0.38578190    -0.03500
N871        N  0.87929174  0.05583822  0.40670939    -0.62400
Mn872      Mn  0.93881486  0.42988069  0.35725535     1.10700
C873        C  0.85697246  0.48289953  0.42228664     1.00600
C874        C  0.85680034  0.01472854  0.28838689     1.00700
N875        N  0.52301831  0.08368629  0.32146250    -0.04600
N876        N  0.54037602  0.11102429  0.30263387    -0.60000
N877        N  0.98061247  0.09604525  0.38795955    -0.04000
N878        N  0.96499729  0.12209827  0.40846476    -0.56700
N879        N  0.51346876  0.08717649  0.38853969    -0.05300
N880        N  0.52513513  0.11142902  0.41109193    -0.59600
N881        N  0.98972621  0.09528334  0.32140312    -0.04300
N882        N  0.98162099  0.12759970  0.30290072    -0.56800
Mn883      Mn  0.55552443  0.04966011  0.35817614     1.20200
Mn884      Mn  0.94375980  0.06534099  0.35277663     1.10100
Cl885      Cl  0.99523863  0.48991401  0.36182016    -0.84700
C886        C  0.02180236  0.14044701  0.29437613     0.97600
C887        C  0.48667093  0.12685828  0.42180197     0.97400
C888        C  0.50492338  0.28913368  0.48325263     0.03500
C889        C  0.51529346  0.28971315  0.51333426     0.03500
C890        C  0.52563003  0.25005226  0.52727542    -0.17000
C891        C  0.52446807  0.21026638  0.51209046     0.03500
C892        C  0.51289889  0.20959168  0.48220672     0.03500
C893        C  0.50378825  0.24925523  0.46813625    -0.17000
H894        H  0.49765077  0.24925688  0.44475083     0.05500
H895        H  0.53217662  0.24972623  0.55061328     0.05500
C896        C  0.77857190  0.98539877  0.51132540     0.03500
C897        C  0.77957267  0.00240958  0.48270864     0.03500
C898        C  0.74112901  0.02033840  0.47061707    -0.17000
C899        C  0.70213322  0.02152289  0.48645261     0.03500
C900        C  0.70138665  0.00546603  0.51523913     0.03500
C901        C  0.73972802  0.98734734  0.52730168    -0.17000
H902        H  0.74005973  0.97665607  0.54993257     0.05500
H903        H  0.74076162  0.03089910  0.44795717     0.05500
C904        C  0.50658043  0.24111542  0.25215440    -0.01300
C905        C  0.01969086  0.30153485  0.28873897    -0.15200
C906        C  0.99208101  0.28832742  0.26781245    -0.30400
H907        H  0.44556444  0.31052033  0.26114728     0.13800
H908        H  0.96318733  0.30821853  0.26298596     0.14400
C909        C  0.03054533  0.17899760  0.27581755    -0.15200
C910        C  0.99852427  0.20766968  0.26844142    -0.30400
H911        H  0.50232774  0.15312114  0.24301443     0.13800
H912        H  0.96629376  0.20187157  0.27736408     0.14400
C913        C  0.48237713  0.16051678  0.44478496    -0.15200
C914        C  0.51403354  0.16891609  0.46441158    -0.30400
H915        H  0.97052916  0.18495878  0.44937498     0.13800
H916        H  0.54229928  0.14717631  0.46627790     0.14400
C917        C  0.50131725  0.32958681  0.46592677    -0.15200
C918        C  0.47057202  0.33431750  0.44520516    -0.30400
H919        H  0.52724494  0.35316551  0.46788237     0.13800
H920        H  0.95610163  0.30903131  0.45711727     0.14400
C921        C  0.65009680  0.46788432  0.45247820    -0.15200
C922        C  0.65889890  0.49966247  0.47155135    -0.30400
H923        H  0.66961195  0.43796232  0.45265620     0.13800
H924        H  0.66093400  0.06022104  0.45635483     0.14400
C925        C  0.82341645  0.47828722  0.44447874    -0.15200
C926        C  0.81931265  0.50466632  0.46756286    -0.30400
H927        H  0.80098343  0.45152540  0.44168839     0.13800
H928        H  0.83677262  0.96711277  0.46402357     0.14400
C929        C  0.66224086  0.01058134  0.53388274    -0.15200
C930        C  0.65136292  0.97929135  0.55275250    -0.30400
H931        H  0.64396615  0.04123632  0.53329058     0.13800
H932        H  0.67489435  0.56085973  0.55400688     0.14400
C933        C  0.81821934  0.97251098  0.52762980    -0.15200
C934        C  0.84617153  0.00364684  0.53491770    -0.30400
H935        H  0.84926699  0.47480317  0.52605801     0.13800
H936        H  0.84410226  0.03499956  0.52385947     0.14400
C937        C  0.49500743  0.14671776  0.53600722    -0.15200
C938        C  0.53008822  0.17030191  0.52953896    -0.30400
H939        H  0.97819901  0.15570292  0.52813972     0.13800
H940        H  0.55959023  0.16685898  0.54267419     0.14400
C941        C  0.53757891  0.34001166  0.55306866    -0.15200
C942        C  0.50988363  0.33011520  0.53124465    -0.30400
H943        H  0.96890825  0.33481072  0.53808484     0.13800
H944        H  0.48152329  0.35105230  0.52715101     0.14400
C945        C  0.57531527  0.26741664  0.22633593    -0.15200
C946        C  0.54522956  0.23659742  0.23096584    -0.30400
H947        H  0.57215643  0.29928021  0.23641177     0.13800
H948        H  0.54846043  0.20620873  0.21888227     0.14400
C949        C  0.92599442  0.24211261  0.22962365    -0.15200
C950        C  0.96908052  0.24598348  0.22448320    -0.30400
H951        H  0.91366396  0.23984175  0.25179903     0.13800
H952        H  0.97999868  0.24824864  0.20189403     0.14400
C953        C  0.77790856  0.07388114  0.03274376    -0.15200
C954        C  0.74473684  0.08015421  0.05165364    -0.30400
H955        H  0.80455126  0.09677776  0.03211632     0.13800
H956        H  0.71657498  0.05913739  0.05085071     0.14400
C957        C  0.78951201  0.41683451  0.03203961    -0.15200
C958        C  0.75425555  0.39521160  0.04059558    -0.30400
H959        H  0.82074247  0.41120723  0.04287688     0.13800
H960        H  0.72242326  0.40380210  0.03143495     0.14400
C961        C  0.80334002  0.07577809  0.96866335    -0.15200
C962        C  0.76746623  0.09669583  0.95885221    -0.30400
H963        H  0.83440084  0.08081738  0.95782824     0.13800
H964        H  0.73590706  0.08855587  0.96804676     0.14400
C965        C  0.77349424  0.42089246  0.96751931    -0.15200
C966        C  0.74039417  0.41259833  0.94913468    -0.30400
H967        H  0.80239659  0.39983846  0.96790515     0.13800
H968        H  0.71037657  0.43194238  0.95038407     0.14400
C969        C  0.01047744  0.20686308  0.73029502    -0.15200
C970        C  0.97723740  0.18896319  0.71559320    -0.30400
H971        H  0.04244610  0.19091697  0.72946420     0.13800
H972        H  0.44700343  0.21091922  0.71447430     0.14400
C973        C  0.99645363  0.28627214  0.72604192    -0.15200
C974        C  0.99283574  0.32861158  0.73363206    -0.30400
H975        H  0.49747733  0.28291119  0.70179222     0.13800
H976        H  0.99326311  0.33805419  0.75652753     0.14400
C977        C  0.55103670  0.25833739  0.76395205    -0.15200
C978        C  0.56781180  0.22697959  0.78148749    -0.30400
H979        H  0.56936436  0.28811872  0.76161445     0.13800
H980        H  0.55149871  0.19593656  0.78306192     0.14400
C981        C  0.92788872  0.26420034  0.76933795    -0.15200
C982        C  0.96647197  0.24220474  0.76972917    -0.30400
H983        H  0.92188998  0.28993695  0.75355657     0.13800
H984        H  0.97122206  0.21721067  0.78634734     0.14400
C985        C  0.79383029  0.02257966  0.71333098    -0.15200
C986        C  0.78177539  0.99205928  0.73273463    -0.30400
H987        H  0.77454663  0.05243484  0.71113008     0.13800
H988        H  0.78444856  0.48852793  0.70578935     0.15200
C989        C  0.70073933  0.99184231  0.73070492    -0.15200
C990        C  0.66864675  0.02218363  0.72763198    -0.30400
H991        H  0.70830688  0.46431650  0.72049465     0.13800
H992        H  0.67086204  0.05343916  0.73851836     0.14400
C993        C  0.73768273  0.03595120  0.77113150    -0.15200
C994        C  0.77006938  0.06465700  0.77557261    -0.30400
H995        H  0.70782604  0.04041522  0.78370101     0.13800
H996        H  0.80167986  0.05957712  0.76541211     0.14400
C997        C  0.76205696  0.45935373  0.77157034    -0.15200
C998        C  0.73250855  0.42781243  0.77594545    -0.30400
H999        H  0.79300086  0.45719126  0.78326444     0.13800
H1000       H  0.70038919  0.43006718  0.76598120     0.14400
C1001       C  0.58360986  0.27483688  0.03039651    -0.15200
C1002       C  0.58731162  0.24435789  0.05121520    -0.30400
H1003       H  0.60886356  0.29895019  0.02776805     0.13800
H1004       H  0.56371462  0.21837343  0.05236019     0.14400
C1005       C  0.92511176  0.27006591  0.02951117    -0.15200
C1006       C  0.91779652  0.23611848  0.04739917    -0.30400
H1007       H  0.90203465  0.29733552  0.02861646     0.13800
H1008       H  0.93962935  0.20784106  0.04685051     0.14400
C1009       C  0.58511605  0.28579438  0.96535411    -0.15200
C1010       C  0.60033889  0.24683541  0.95598397    -0.30400
H1011       H  0.59638750  0.31560218  0.95528856     0.13800
H1012       H  0.58739361  0.21692827  0.96492813     0.14400
C1013       C  0.93009990  0.29087905  0.96492958    -0.15200
C1014       C  0.91079186  0.25487138  0.95515926    -0.30400
H1015       H  0.92403632  0.32180274  0.95395866     0.13800
H1016       H  0.91997345  0.22349552  0.96458993     0.14400
C1017       C  0.78430170  0.99496266  0.26826976    -0.15200
C1018       C  0.82047472  0.01968990  0.26721136    -0.30400
H1019       H  0.77730490  0.49194698  0.29521782     0.13800
H1020       H  0.82321810  0.04605920  0.25166398     0.14400
C1021       C  0.70323329  0.00813059  0.26688480    -0.15200
C1022       C  0.68783778  0.97738525  0.28495694    -0.30400
H1023       H  0.68952764  0.53775177  0.26512701     0.13800
H1024       H  0.70472504  0.94602342  0.28623593     0.14400
C1025       C  0.74813524  0.03749454  0.22616072    -0.15200
C1026       C  0.74967850  0.07965457  0.23411345    -0.30400
H1027       H  0.74852693  0.02989897  0.20288197     0.13800
H1028       H  0.74841509  0.08893798  0.25703093     0.14400
C1029       C  0.76783941  0.42219012  0.22757091    -0.15200
C1030       C  0.74211341  0.45835686  0.22891571    -0.30400
H1031       H  0.79585718  0.41851178  0.24189526     0.13800
H1032       H  0.71540358  0.46121204  0.21324270     0.14400
C1033       C  0.74408461  0.00011542  0.24809055    -0.01300
C1034       C  0.95166416  0.77057830  0.01097677     0.03500
C1035       C  0.95514774  0.77551428  0.98044699     0.03500
C1036       C  0.49333637  0.76667919  0.97635390    -0.17000
C1037       C  0.53252604  0.76576203  0.99224555     0.03500
C1038       C  0.53340330  0.74875466  0.02092165     0.03500
C1039       C  0.49508095  0.73039582  0.03211905    -0.17000
H1040       H  0.49456628  0.71856076  0.05445764     0.05500
H1041       H  0.49365163  0.77872185  0.95403914     0.05500
C1042       C  0.75490563  0.49811239  0.75067386    -0.01300
C1043       C  0.49327615  0.75791488  0.75177763    -0.01300
C1044       C  0.79206595  0.95626655  0.98210895     0.03500
C1045       C  0.77731678  0.95450875  0.01124317     0.03500
C1046       C  0.78165393  0.49612389  0.03333907    -0.17000
C1047       C  0.77088012  0.53658737  0.02089130     0.03500
C1048       C  0.76246592  0.53895978  0.99062366     0.03500
C1049       C  0.76266004  0.50060258  0.97386595    -0.17000
H1050       H  0.75583395  0.50253105  0.95058157     0.05500
H1051       H  0.78851712  0.49406601  0.05662095     0.05500
N1052       N  0.72019392  0.83980957  0.89305877    -0.04900
N1053       N  0.70924982  0.86109416  0.91715060    -0.57000
N1054       N  0.74806566  0.84136853  0.82275948    -0.04600
N1055       N  0.75735482  0.87184913  0.80346406    -0.59100
N1056       N  0.70543036  0.83905871  0.82633972    -0.04200
N1057       N  0.68502016  0.86769633  0.80927266    -0.57000
N1058       N  0.76269362  0.84080627  0.88907139    -0.03800
N1059       N  0.78156427  0.86285216  0.91026226    -0.59500
C1060       C  0.74786738  0.87513595  0.92764271     0.97300
C1061       C  0.71777932  0.88777728  0.79509888     0.97100
N1062       N  0.82697248  0.72747786  0.81544759    -0.05100
N1063       N  0.85504048  0.71325369  0.79554299    -0.57600
N1064       N  0.83817101  0.77158898  0.88266759    -0.03200
N1065       N  0.86382150  0.78683866  0.90348475    -0.58800
N1066       N  0.84152473  0.72892532  0.88145020    -0.05100
N1067       N  0.86971404  0.71412038  0.90103154    -0.57900
N1068       N  0.82576134  0.77046307  0.81585641    -0.02800
N1069       N  0.85301146  0.78606886  0.79621339    -0.58900
Mn1070     Mn  0.79434565  0.80699434  0.85230595     1.18400
C1071       C  0.87042662  0.75007186  0.78343233     0.99400
C1072       C  0.88294987  0.75039915  0.91475337     1.00000
N1073       N  0.63703866  0.76135154  0.83478769    -0.05100
N1074       N  0.60534407  0.77325987  0.81653144    -0.61400
N1075       N  0.65752502  0.72382238  0.90323624    -0.03900
N1076       N  0.64120321  0.70925980  0.92798503    -0.62100
N1077       N  0.65319225  0.76639178  0.90166998    -0.04600
N1078       N  0.63357060  0.78175584  0.92537011    -0.61700
N1079       N  0.63944952  0.71853011  0.83681326    -0.03500
N1080       N  0.60939303  0.70060239  0.82010239    -0.62400
Mn1081     Mn  0.67777205  0.80257680  0.86363132     1.10700
C1082       C  0.58856366  0.73497536  0.80741907     1.00600
C1083       C  0.62663447  0.74566624  0.94165351     1.00700
N1084       N  0.77599751  0.65643269  0.89090284    -0.04600
N1085       N  0.79945639  0.63548809  0.91073084    -0.60000
N1086       N  0.71573330  0.64703018  0.83182382    -0.04000
N1087       N  0.69852640  0.61262769  0.81920940    -0.56700
N1088       N  0.75760684  0.64949554  0.82545572    -0.05300
N1089       N  0.76943880  0.61676743  0.80823245    -0.59600
N1090       N  0.73421759  0.65539671  0.89735609    -0.04300
N1091       N  0.72836886  0.63349794  0.92193581    -0.56800
Mn1092     Mn  0.80096615  0.69001037  0.85256328     1.20200
Mn1093     Mn  0.68580236  0.68548403  0.86737200     1.10100
Cl1094     Cl  0.73956843  0.74626923  0.85837116    -0.84700
C1095       C  0.76957739  0.62179757  0.93005850     0.97600
C1096       C  0.73212450  0.59439782  0.80430859     0.97400
N1097       N  0.66125991  0.73511233  0.18573913    -0.04900
N1098       N  0.62904565  0.72501022  0.20368687    -0.57000
N1099       N  0.65701205  0.76337059  0.11525102    -0.04600
N1100       N  0.63099599  0.77293923  0.09282615    -0.59100
N1101       N  0.65754153  0.72108182  0.11996185    -0.04200
N1102       N  0.63191712  0.70111987  0.10124356    -0.57000
N1103       N  0.66203529  0.77769408  0.18190189    -0.03800
N1104       N  0.63109085  0.79708221  0.19752679    -0.59500
C1105       C  0.61089905  0.76406706  0.21113029     0.97300
C1106       C  0.61586932  0.73357940  0.08429003     0.97100
N1107       N  0.77074555  0.83369657  0.10336922    -0.05100
N1108       N  0.78284122  0.85625250  0.08021764    -0.57600
N1109       N  0.73729736  0.84872651  0.17245503    -0.03200
N1110       N  0.72597780  0.88119024  0.19016143    -0.58800
N1111       N  0.78014247  0.84690756  0.16963233    -0.05100
N1112       N  0.79864946  0.87778728  0.18512909    -0.57900
N1113       N  0.72803189  0.83520812  0.10608323    -0.02800
N1114       N  0.71020065  0.85918935  0.08509494    -0.58900
Mn1115     Mn  0.69540157  0.80706131  0.14413638     1.18400
C1116       C  0.74464419  0.87151246  0.06884958     0.99400
C1117       C  0.76474723  0.89872943  0.19800970     1.00000
N1118       N  0.73002642  0.64908085  0.12249903    -0.05100
N1119       N  0.71201792  0.62407744  0.10245901    -0.61400
N1120       N  0.78090246  0.65815804  0.18662613    -0.03900
N1121       N  0.79752072  0.63002437  0.20582946    -0.62100
N1122       N  0.73794839  0.66022901  0.18913600    -0.04600
N1123       N  0.72484523  0.63377921  0.21002157    -0.61700
N1124       N  0.77275112  0.64891485  0.11949206    -0.03500
N1125       N  0.78464869  0.62431443  0.09704064    -0.62400
Mn1126     Mn  0.69627477  0.69071161  0.15492283     1.10700
C1127       C  0.74636202  0.60923834  0.08661653     1.00600
C1128       C  0.76221355  0.61573356  0.22060352     1.00700
N1129       N  0.85442767  0.77327857  0.17180267    -0.04600
N1130       N  0.88551976  0.79196049  0.18722573    -0.60000
N1131       N  0.84437461  0.71821946  0.10940421    -0.04000
N1132       N  0.86548365  0.69953984  0.08735863    -0.56700
N1133       N  0.84213829  0.76059443  0.10552314    -0.05300
N1134       N  0.86104606  0.77170612  0.08084443    -0.59600
N1135       N  0.85488438  0.73089139  0.17641120    -0.04300
N1136       N  0.88622670  0.72013880  0.19531520    -0.56800
Mn1137     Mn  0.81253006  0.80413506  0.13763440     1.20200
Mn1138     Mn  0.81428463  0.68802996  0.14835908     1.10100
Cl1139     Cl  0.75463982  0.74756212  0.14680624    -0.84700
C1140       C  0.90480698  0.75872065  0.20207579     0.97600
C1141       C  0.87511515  0.73337325  0.06958056     0.97400
N1142       N  0.58808766  0.53479366  0.68544052    -0.04900
N1143       N  0.61571339  0.55239976  0.70401157    -0.57000
N1144       N  0.58342121  0.97453227  0.61406672    -0.04600
N1145       N  0.60638705  0.95415523  0.59377772    -0.59100
N1146       N  0.59319947  0.53929630  0.61891623    -0.04200
N1147       N  0.61280164  0.55870247  0.59700485    -0.57000
N1148       N  0.58344607  0.98820448  0.68023321    -0.03800
N1149       N  0.61431206  0.97738376  0.69943387    -0.59500
C1150       C  0.63991347  0.51831509  0.71383961     0.97300
C1151       C  0.62908702  0.52519545  0.58122566     0.97100
N1152       N  0.96345492  0.90605165  0.61120203    -0.05100
N1153       N  0.95030184  0.88705062  0.58689441    -0.57600
N1154       N  0.50796115  0.91614318  0.68466751    -0.03200
N1155       N  0.52265287  0.89020165  0.70566188    -0.58800
N1156       N  0.95408965  0.91009834  0.67849028    -0.05100
N1157       N  0.93498702  0.88264715  0.69649870    -0.57900
N1158       N  0.51196136  0.90472753  0.61759580    -0.02800
N1159       N  0.52839914  0.87918361  0.59690031    -0.58900
Mn1160     Mn  0.54738064  0.94508364  0.64961799     1.18400
C1161       C  0.49265147  0.86317466  0.58343573     0.99400
C1162       C  0.96871698  0.86180095  0.71002890     1.00000
N1163       N  0.51493379  0.60264021  0.61637851    -0.05100
N1164       N  0.53071932  0.62348566  0.59359021    -0.61400
N1165       N  0.98783253  0.59996061  0.67718530    -0.03900
N1166       N  0.97596064  0.63325001  0.69400767    -0.62100
N1167       N  0.50652307  0.60090254  0.68334589    -0.04600
N1168       N  0.51568803  0.63277043  0.70167510    -0.61700
N1169       N  0.98343026  0.59435350  0.60994063    -0.03500
N1170       N  0.96717092  0.61511898  0.58702528    -0.62400
Mn1171     Mn  0.55126333  0.57011138  0.65151154     1.10700
C1172       C  0.00268954  0.62456777  0.57098739     1.00600
C1173       C  0.01428498  0.65122010  0.70216874     1.00700
N1174       N  0.88447702  0.98908912  0.67010974    -0.04600
N1175       N  0.85207822  0.97850352  0.68767737    -0.60000
N1176       N  0.90817366  0.53026998  0.61258251    -0.04000
N1177       N  0.88298252  0.54910575  0.59272640    -0.56700
N1178       N  0.89631883  0.98133619  0.60302855    -0.05300
N1179       N  0.87771978  0.96588012  0.57911786    -0.59600
N1180       N  0.91056969  0.52810674  0.67969289    -0.04300
N1181       N  0.88568916  0.54342882  0.70110538    -0.56800
Mn1182     Mn  0.92356967  0.94574094  0.64114073     1.20200
Mn1183     Mn  0.94671531  0.56399050  0.64553266     1.10100
Cl1184     Cl  0.00180547  0.50125226  0.64475983    -0.84700
C1185       C  0.86698271  0.50727864  0.71211236     0.97600
C1186       C  0.86616449  0.51551974  0.57781063     0.97400
N1187       N  0.96253701  0.90599416  0.32516695    -0.04900
N1188       N  0.94425866  0.87787579  0.30726614    -0.57000
N1189       N  0.51368307  0.90169428  0.39540307    -0.04600
N1190       N  0.52609783  0.88092318  0.41935626    -0.59100
N1191       N  0.95827189  0.91067460  0.39217764    -0.04200
N1192       N  0.93908766  0.88941049  0.41365613    -0.57000
N1193       N  0.52427660  0.89232223  0.32904964    -0.03800
N1194       N  0.54318196  0.86016945  0.31433600    -0.59500
C1195       C  0.97805874  0.85296971  0.29773203     0.97300
C1196       C  0.48823830  0.86681754  0.43076897     0.97100
N1197       N  0.58586462  0.50339158  0.39294049    -0.05100
N1198       N  0.60873704  0.51345404  0.41644453    -0.57600
N1199       N  0.59651977  0.96604780  0.33088158    -0.03200
N1200       N  0.62788908  0.94821166  0.31492813    -0.58800
N1201       N  0.59488105  0.50749526  0.32561991    -0.05100
N1202       N  0.62874910  0.51891987  0.30939677    -0.57900
N1203       N  0.58352377  0.97270829  0.39744867    -0.02800
N1204       N  0.60011568  0.95950822  0.42263372    -0.58900
Mn1205     Mn  0.55528765  0.93260774  0.36300629     1.18400
C1206       C  0.61122956  0.99690611  0.43599461     0.99400
C1207       C  0.64376158  0.48073379  0.29784099     1.00000
N1208       N  0.89689803  0.99337242  0.38781632    -0.05100
N1209       N  0.87179589  0.98362680  0.41024755    -0.61400
N1210       N  0.90423193  0.50930209  0.32185930    -0.03900
N1211       N  0.87714740  0.52433389  0.30149940    -0.62100
N1212       N  0.89896129  0.98898974  0.32077429    -0.04600
N1213       N  0.86795136  0.97728031  0.30231740    -0.61700
N1214       N  0.89675968  0.50843089  0.38932073    -0.03500
N1215       N  0.87112584  0.52107281  0.41111302    -0.62400
Mn1216     Mn  0.92830134  0.94916762  0.35633860     1.10700
C1217       C  0.86136745  0.02295715  0.42187312     1.00600
C1218       C  0.86283023  0.48811134  0.28796843     1.00700
N1219       N  0.52701403  0.58911491  0.32566965    -0.04600
N1220       N  0.54655599  0.61560826  0.30735432    -0.60000
N1221       N  0.96571874  0.58416515  0.39340474    -0.04000
N1222       N  0.94690090  0.61031304  0.41282104    -0.56700
N1223       N  0.52202828  0.58502325  0.39311994    -0.05300
N1224       N  0.53730891  0.60854299  0.41514036    -0.59600
N1225       N  0.97567537  0.58283883  0.32644531    -0.04300
N1226       N  0.96250619  0.60892184  0.30508381    -0.56800
Mn1227     Mn  0.55844380  0.54708180  0.35920770     1.20200
Mn1228     Mn  0.93460393  0.54715910  0.35771593     1.10100
Cl1229     Cl  0.99427357  0.99881234  0.35670090    -0.84700
C1230       C  0.99994739  0.62595337  0.29496148     0.97600
C1231       C  0.50103403  0.62801084  0.42659438     0.97400
C1232       C  0.52452196  0.78882948  0.49032032     0.03500
C1233       C  0.52827608  0.78739828  0.52104682     0.03500
C1234       C  0.53318807  0.74690162  0.53479213    -0.17000
C1235       C  0.53348531  0.70790980  0.51879576     0.03500
C1236       C  0.53005760  0.70897701  0.48802493     0.03500
C1237       C  0.52596245  0.74974063  0.47419812    -0.17000
H1238       H  0.52399007  0.75116196  0.45051219     0.05500
H1239       H  0.53537353  0.74556377  0.55849543     0.05500
C1240       C  0.78219162  0.50081507  0.51674159     0.03500
C1241       C  0.78010149  0.50136813  0.48596259     0.03500
C1242       C  0.73925994  0.50014783  0.47189671    -0.17000
C1243       C  0.70050255  0.49862222  0.48783081     0.03500
C1244       C  0.70252811  0.49948467  0.51840972     0.03500
C1245       C  0.74311340  0.49994431  0.53258142    -0.17000
H1246       H  0.74414949  0.49851924  0.55630364     0.05500
H1247       H  0.73748635  0.50154495  0.44818840     0.05500
C1248       C  0.49550528  0.74281322  0.24621408    -0.01300
C1249       C  0.97194019  0.81379792  0.27935401    -0.15200
C1250       C  0.00298843  0.78241674  0.27701465    -0.30400
H1251       H  0.54409555  0.77852215  0.29005892     0.13800
H1252       H  0.03304045  0.78650728  0.28940698     0.14400
C1253       C  0.00114368  0.66042505  0.27265272    -0.15200
C1254       C  0.00376388  0.70258682  0.28053716    -0.30400
H1255       H  0.55303543  0.67611756  0.26492530     0.13800
H1256       H  0.00718660  0.70986597  0.30375722     0.14400
C1257       C  0.50055727  0.66365748  0.44838483    -0.15200
C1258       C  0.53043155  0.66869125  0.46973224    -0.30400
H1259       H  0.94763549  0.68279800  0.44890847     0.13800
H1260       H  0.55526799  0.64363871  0.47360490     0.14400
C1261       C  0.51945224  0.83009008  0.47399536    -0.15200
C1262       C  0.48616210  0.83563750  0.45506548    -0.30400
H1263       H  0.54590707  0.85319521  0.47480352     0.13800
H1264       H  0.93976886  0.81871608  0.45229240     0.14400
C1265       C  0.63619563  0.99763749  0.46330520    -0.15200
C1266       C  0.66198462  0.03103400  0.46982235    -0.30400
H1267       H  0.64038672  0.96691241  0.47491434     0.13800
H1268       H  0.63869571  0.52907833  0.47241236     0.14400
C1269       C  0.82999013  0.02992136  0.44566245    -0.15200
C1270       C  0.81872031  0.99791151  0.46397584    -0.30400
H1271       H  0.81387718  0.06167013  0.44711339     0.13800
H1272       H  0.84353748  0.52914060  0.47227358     0.14400
C1273       C  0.66341741  0.49862139  0.53664740    -0.15200
C1274       C  0.65655676  0.53094856  0.55568716    -0.30400
H1275       H  0.64425704  0.46917113  0.53725696     0.13800
H1276       H  0.66786718  0.94768826  0.55186837     0.14400
C1277       C  0.82404387  0.49777964  0.53312118    -0.15200
C1278       C  0.82962875  0.52171199  0.55732848    -0.30400
H1279       H  0.81731255  0.94280705  0.54054538     0.13800
H1280       H  0.80590951  0.54725412  0.56264632     0.14400
C1281       C  0.49500852  0.65890566  0.55043104    -0.15200
C1282       C  0.53194372  0.66751064  0.53596191    -0.30400
H1283       H  0.96752599  0.66042445  0.53646820     0.13800
H1284       H  0.56257900  0.65140702  0.54190931     0.14400
C1285       C  0.49362133  0.82950059  0.56046512    -0.15200
C1286       C  0.52484577  0.82671855  0.53984862    -0.30400
H1287       H  0.95708876  0.83740275  0.53789782     0.13800
H1288       H  0.54898010  0.85203025  0.53773942     0.14400
C1289       C  0.56986159  0.77049505  0.22788798    -0.15200
C1290       C  0.53981181  0.73906501  0.23022345    -0.30400
H1291       H  0.56325531  0.80288569  0.23637756     0.13800
H1292       H  0.54638968  0.70849381  0.21887477     0.14400
C1293       C  0.94511761  0.76405762  0.21985569    -0.15200
C1294       C  0.95738115  0.73621980  0.24126920    -0.30400
H1295       H  0.96490887  0.79236231  0.21559209     0.13800
H1296       H  0.93607494  0.70913211  0.24593175     0.14400
C1297       C  0.77013534  0.57520427  0.04021876    -0.15200
C1298       C  0.74250197  0.57704497  0.06297020    -0.30400
H1299       H  0.79421473  0.60032192  0.03701574     0.13800
H1300       H  0.71689918  0.55311947  0.06479384     0.14400
C1301       C  0.77342106  0.91243553  0.02691951    -0.15200
C1302       C  0.74149804  0.90582123  0.04640603    -0.30400
H1303       H  0.79945436  0.88823571  0.02430957     0.13800
H1304       H  0.71399722  0.92860516  0.04764436     0.14400
C1305       C  0.75420993  0.58035036  0.97511034    -0.15200
C1306       C  0.78101275  0.59072530  0.95321645    -0.30400
H1307       H  0.72415925  0.59869809  0.97907934     0.13800
H1308       H  0.81161964  0.57260642  0.95061865     0.14400
C1309       C  0.79071010  0.91858060  0.96217335    -0.15200
C1310       C  0.75207709  0.90258476  0.95386950    -0.30400
H1311       H  0.82003255  0.91041413  0.94983997     0.13800
H1312       H  0.72235343  0.91316564  0.96495585     0.14400
C1313       C  0.98713796  0.70838020  0.73625512    -0.15200
C1314       C  0.01835243  0.69323839  0.71799604    -0.30400
H1315       H  0.95894130  0.68790029  0.73952310     0.13800
H1316       H  0.43643136  0.68946067  0.73939590     0.14400
C1317       C  0.99093534  0.79013500  0.73108991    -0.15200
C1318       C  0.96317138  0.82501522  0.73052613    -0.30400
H1319       H  0.49117554  0.79013607  0.70716830     0.13800
H1320       H  0.93491417  0.82683322  0.74469232     0.14400
C1321       C  0.53390221  0.76286871  0.77115580    -0.15200
C1322       C  0.54960976  0.73046624  0.78838596    -0.30400
H1323       H  0.55150140  0.79330803  0.77060822     0.13800
H1324       H  0.53373942  0.69910284  0.78818866     0.14400
C1325       C  0.90763527  0.75059823  0.76307760    -0.15200
C1326       C  0.94897971  0.75510136  0.77293886    -0.30400
H1327       H  0.90137927  0.74508081  0.73998389     0.13800
H1328       H  0.95395431  0.75940897  0.79635360     0.14400
C1329       C  0.83341905  0.50750534  0.73492754    -0.15200
C1330       C  0.79195210  0.49688320  0.72839422    -0.30400
H1331       H  0.84235481  0.51814283  0.75675907     0.13800
H1332       H  0.80294247  0.96340291  0.73513811     0.15200
C1333       C  0.71194085  0.49395159  0.73326394    -0.15200
C1334       C  0.67943730  0.52411050  0.73188066    -0.30400
H1335       H  0.69874071  0.96235232  0.71760290     0.13800
H1336       H  0.68258414  0.55554418  0.74231533     0.14400
C1337       C  0.75708051  0.54098874  0.76778423    -0.15200
C1338       C  0.72947009  0.55189122  0.78941989    -0.30400
H1339       H  0.78139042  0.56472707  0.76170766     0.13800
H1340       H  0.70320739  0.53019628  0.79520486     0.14400
C1341       C  0.74223977  0.95592256  0.77223215    -0.15200
C1342       C  0.71111500  0.92561645  0.77548604    -0.30400
H1343       H  0.77173421  0.95259901  0.78546458     0.13800
H1344       H  0.67967066  0.92907785  0.76466228     0.14400
C1345       C  0.57215980  0.75442922  0.04035549    -0.15200
C1346       C  0.58215994  0.72604040  0.06182177    -0.30400
H1347       H  0.59191224  0.78317409  0.03753095     0.13800
H1348       H  0.56482768  0.69555745  0.06323032     0.14400
C1349       C  0.90966660  0.76417076  0.02604709    -0.15200
C1350       C  0.90507849  0.73047223  0.04456561    -0.30400
H1351       H  0.88588344  0.79085699  0.02576722     0.13800
H1352       H  0.92830359  0.70329826  0.04401437     0.14400
C1353       C  0.57247304  0.77653349  0.97589539    -0.15200
C1354       C  0.60028621  0.74415964  0.96853998    -0.30400
H1355       H  0.57226152  0.80658599  0.96332433     0.13800
H1356       H  0.59762719  0.71271011  0.97927029     0.14400
C1357       C  0.91670876  0.77475903  0.96079958    -0.15200
C1358       C  0.91766354  0.74970975  0.93678259    -0.30400
H1359       H  0.88801403  0.79464156  0.96589314     0.13800
H1360       H  0.94468262  0.72681650  0.93342348     0.14400
C1361       C  0.78567815  0.49155914  0.27208739    -0.15200
C1362       C  0.82848012  0.48875486  0.26503645    -0.30400
H1363       H  0.78322297  0.96929713  0.28462813     0.13800
H1364       H  0.83840155  0.48914798  0.24224556     0.14400
C1365       C  0.70524785  0.50574932  0.26616671    -0.15200
C1366       C  0.68530091  0.47426389  0.28145285    -0.30400
H1367       H  0.68488582  0.03862214  0.26480794     0.13800
H1368       H  0.69964039  0.44164833  0.28149249     0.14400
C1369       C  0.75724718  0.53743689  0.23039471    -0.15200
C1370       C  0.76262999  0.57812419  0.24083541    -0.30400
H1371       H  0.75734251  0.53313661  0.20673978     0.13800
H1372       H  0.76202289  0.58416853  0.26424175     0.14400
C1373       C  0.77045071  0.93888376  0.21536999    -0.15200
C1374       C  0.73798942  0.95794650  0.23069840    -0.30400
H1375       H  0.80266639  0.95317267  0.21563430     0.13800
H1376       H  0.70621449  0.94263502  0.23066721     0.14400
loop_ 
_geom_bond_atom_site_label_1 
_geom_bond_atom_site_label_2 
_geom_bond_distance 
_geom_bond_site_symmetry_2 
_ccdc_geom_bond_type 
C1          C342   1.544       .  S
C1          C673   1.543       .  S
C1          C677   1.538       .  S
C1          C681   1.536       .  S
C2            C3   1.408   1_554  A
C2          C695   1.403       .  A
C2          C317   1.480       .  S
C3          C692   1.400       .  A
C3          C325   1.471       .  S
C4            C5   1.401       .  A
C4          C691   1.401   1_455  A
C4            H9   1.085       .  S
C5            C6   1.410   1_556  A
C5          C321   1.477       .  S
C6            C7   1.406       .  A
C6          C313   1.482       .  S
C7          C690   1.404   1_455  A
C7            H8   1.084       .  S
C10         C298   1.536   1_545  S
C10         C301   1.539       .  S
C10         C305   1.544       .  S
C10         C653   1.528   1_545  S
C11         C289   1.537       .  S
C11         C969   1.531       .  S
C11         C973   1.539   1_455  S
C11         C982   1.543   1_455  S
C12          C13   1.407   1_556  A
C12         C361   1.399       .  A
C12         C277   1.471       .  S
C13         C358   1.403       .  A
C13         C269   1.478       .  S
C14          C15   1.401       .  A
C14         C357   1.399   1_545  A
C14          H19   1.085   1_545  S
C15          C16   1.411   1_554  A
C15         C265   1.472       .  S
C16          C17   1.398       .  A
C16         C273   1.479       .  S
C17         C356   1.406   1_545  A
C17          H18   1.085       .  S
N20          N21   1.319       .  A
N20          N26   1.314       .  A
N20         Mn49   2.194       .  S
N21          C28   1.349       .  A
N22          N24   1.319       .  A
N22          N23   1.323       .  A
N22         Mn38   2.212       .  S
N23          C29   1.352       .  A
N24          N25   1.322       .  A
N24         Mn49   2.222       .  S
N25          C29   1.354       .  A
N26          N27   1.321       .  A
N26         Mn38   2.195       .  S
N27          C28   1.354       .  A
C28         C278   1.470       .  S
C29         C310   1.477       .  S
N30          N36   1.320       .  A
N30          N31   1.327       .  A
N30         Mn60   2.233       .  S
N31          C39   1.357       .  A
N32          N33   1.322       .  A
N32          N34   1.314       .  A
N32         Mn38   2.201       .  S
N33          C40   1.354       .  A
N34          N35   1.317       .  A
N34         Mn60   2.188       .  S
N35          C40   1.348       .  A
N36          N37   1.321       .  A
N36         Mn38   2.215       .  S
N37          C39   1.351       .  A
Mn38        Cl62   2.553       .  S
C39         C293   1.485       .  S
C40         C326   1.467       .  S
N41          N42   1.326       .  A
N41          N47   1.319       .  A
N41         Mn49   2.225       .  S
N42          C50   1.357       .  A
N43          N45   1.314       .  A
N43          N44   1.324       .  A
N43         Mn61   2.214       .  S
N44          C51   1.356       .  A
N45          N46   1.319       .  A
N45         Mn49   2.194       .  S
N46          C51   1.351       .  A
N47          N48   1.320       .  A
N47         Mn61   2.212       .  S
N48          C50   1.350       .  A
Mn49        Cl62   2.548       .  S
C50         C290   1.480       .  S
C51         C322   1.479       .  S
N52          N53   1.320       .  A
N52          N58   1.315       .  A
N52         Mn60   2.202       .  S
N53          C63   1.350       .  A
N54          N55   1.324       .  A
N54          N56   1.320       .  A
N54         Mn61   2.223       .  S
N55          C64   1.354       .  A
N56          N57   1.323       .  A
N56         Mn60   2.230       .  S
N57          C64   1.356       .  A
N58          N59   1.323       .  A
N58         Mn61   2.206       .  S
N59          C63   1.356       .  A
Mn60        Cl62   2.552       .  S
Mn61        Cl62   2.553       .  S
C63         C274   1.478       .  S
C64         C306   1.487       .  S
N65          N66   1.316       .  A
N65          N71   1.321       .  A
N65         Mn94   2.177       .  S
N66          C73   1.342       .  A
N67          N69   1.315       .  A
N67          N68   1.322       .  A
N67         Mn83   2.204       .  S
N68          C74   1.353       .  A
N69          N70   1.320       .  A
N69         Mn94   2.198       .  S
N70          C74   1.350       .  A
N71          N72   1.328       .  A
N71         Mn83   2.248       .  S
N72          C73   1.360       .  A
C73         C257   1.477       .  S
C74         C314   1.470       .  S
N75          N81   1.314       .  A
N75          N76   1.321       .  A
N75        Mn105   2.189       .  S
N76          C84   1.353       .  A
N77          N78   1.330       .  A
N77          N79   1.321       .  A
N77         Mn83   2.248       .  S
N78          C85   1.362       .  A
N79          N80   1.319       .  A
N79        Mn105   2.212       .  S
N80          C85   1.348       .  A
N81          N82   1.319       .  A
N81         Mn83   2.196       .  S
N82          C84   1.350       .  A
Mn83       Cl107   2.565       .  S
C84         C270   1.465       .  S
C85         C341   1.489       .  S
N86          N87   1.317       .  A
N86          N92   1.313       .  A
N86         Mn94   2.174       .  S
N87          C95   1.347       .  A
N88          N90   1.318       .  A
N88          N89   1.324       .  A
N88        Mn106   2.224       .  S
N89          C96   1.356       .  A
N90          N91   1.322       .  A
N90         Mn94   2.211       .  S
N91          C96   1.353       .  A
N92          N93   1.323       .  A
N92        Mn106   2.210       .  S
N93          C95   1.356       .  A
Mn94       Cl107   2.533       .  S
C95         C266   1.469       .  S
C96         C338   1.485       .  S
N97          N98   1.319       .  A
N97         N103   1.319       .  A
N97        Mn105   2.199       .  S
N98         C108   1.347       .  A
N99         N100   1.318       .  A
N99         N101   1.314       .  A
N99        Mn106   2.191       .  S
N100        C109   1.349       .  A
N101        N102   1.322       .  A
N101       Mn105   2.202       .  S
N102        C109   1.354       .  A
N103        N104   1.325       .  A
N103       Mn106   2.227       .  S
N104        C108   1.358       .  A
Mn105      Cl107   2.531       .  S
Mn106      Cl107   2.561       .  S
C108        C261   1.476       .  S
C109        C318   1.468       .  S
N110        N111   1.321       .  A
N110        N460   1.320   1_545  A
N110       Mn139   2.205       .  S
N111        C118   1.349       .  A
N112        N113   1.316       .  A
N112        N458   1.313       .  A
N112       Mn128   2.168       .  S
N113        C463   1.345       .  A
N114        N115   1.326       .  A
N114        N456   1.314   1_545  A
N114       Mn139   2.223       .  S
N115        C119   1.358   1_545  A
N116        N117   1.323       .  A
N116        N454   1.319       .  A
N116       Mn128   2.214       .  S
N117        C462   1.354       .  A
C118        C302   1.479       .  S
C118        N461   1.357   1_545  A
C119        C242   1.470       .  S
C119        N457   1.345       .  A
N120        N121   1.325       .  A
N120        N814   1.315       .  A
N120       Mn150   2.213       .  S
N121        C817   1.356       .  A
N122        N123   1.321       .  A
N122        N812   1.316   1_455  A
N122       Mn128   2.198       .  S
N123        C818   1.351   1_455  A
N124        N125   1.323       .  A
N124        N810   1.320       .  A
N124       Mn150   2.230       .  S
N125        C130   1.354       .  A
N126        N127   1.317       .  A
N126        N808   1.315   1_455  A
N126       Mn128   2.195       .  S
N127        C129   1.350   1_455  A
Mn128     Cl1184   2.541       .  S
C129        C253   1.475       .  S
C129        N809   1.355       .  A
C130        C286   1.475       .  S
C130        N811   1.353       .  A
N131        N132   1.318       .  A
N131        N825   1.313   1_455  A
N131       Mn139   2.180       .  S
N132        C828   1.351       .  A
N133        N134   1.320       .  A
N133        N823   1.318       .  A
N133       Mn151   2.204       .  S
N134        C141   1.350       .  A
N135        N136   1.326       .  A
N135        N821   1.318   1_455  A
N135       Mn139   2.236       .  S
N136        C829   1.359   1_455  A
N137        N138   1.319       .  A
N137        N819   1.312       .  A
N137       Mn151   2.188       .  S
N138        C140   1.350       .  A
Mn139      Cl840   2.552   1_445  S
C140        C937   1.468       .  S
C140        N820   1.353       .  A
C141        C282   1.478       .  S
C141        N824   1.357       .  A
N142        N143   1.321       .  A
N142        N492   1.318       .  A
N142       Mn150   2.213       .  S
N143        C497   1.351       .  A
N144        N145   1.316       .  A
N144        N490   1.315   1_545  A
N144       Mn151   2.175       .  S
N145        C154   1.346   1_545  A
N146        N147   1.328       .  A
N146        N488   1.316       .  A
N146       Mn150   2.230       .  S
N147        C498   1.362       .  A
N148        N149   1.320       .  A
N148        N486   1.319   1_545  A
N148       Mn151   2.200       .  S
N149        C153   1.349       .  A
Mn150      Cl496   2.558       .  S
Mn151      Cl152   2.538       .  S
Cl152     Mn1160   2.544   1_545  S
Cl152      Mn827   2.550       .  S
Cl152      Mn494   2.560   1_545  S
C153        C297   1.480       .  S
C153        N487   1.357   1_545  A
C154        C246   1.471       .  S
C154        N491   1.358       .  A
N155        N156   1.320       .  A
N155        N849   1.319       .  A
N155       Mn184   2.197       .  S
N156        C163   1.350       .  A
N157        N158   1.317       .  A
N157        N847   1.314   1_455  A
N157       Mn173   2.178       .  S
N158        C164   1.351   1_455  A
N159        N160   1.319       .  A
N159        N845   1.312       .  A
N159       Mn184   2.184       .  S
N160        C852   1.349       .  A
N161        N162   1.318       .  A
N161        N843   1.318   1_455  A
N161       Mn173   2.201       .  S
N162        C851   1.348       .  A
C163        C217   1.479       .  S
C163        N850   1.355       .  A
C164        C230   1.462       .  S
C164        N848   1.351       .  A
N165        N166   1.321       .  A
N165        N515   1.314   1_545  A
N165       Mn195   2.195       .  S
N166        C518   1.354   1_545  A
N167        N168   1.317       .  A
N167        N513   1.318       .  A
N167       Mn173   2.190       .  S
N168        C519   1.347       .  A
N169        N170   1.323       .  A
N169        N511   1.319   1_545  A
N169       Mn195   2.215       .  S
N170        C175   1.354   1_545  A
N171        N172   1.321       .  A
N171        N509   1.314       .  A
N171       Mn173   2.197       .  S
N172        C174   1.352       .  A
Mn173      Cl885   2.533   1_455  S
C174        C233   1.470       .  S
C174        N510   1.352       .  A
C175        C334   1.483       .  S
C175        N512   1.355       .  A
N176        N177   1.315       .  A
N176        N526   1.315       .  A
N176       Mn184   2.168       .  S
N177        C185   1.343       .  A
N178        N179   1.321       .  A
N178        N524   1.320   1_545  A
N178       Mn196   2.209       .  S
N179        C186   1.350   1_545  A
N180        N181   1.322       .  A
N180        N522   1.318       .  A
N180       Mn184   2.198       .  S
N181        C530   1.351       .  A
N182        N183   1.318       .  A
N182        N520   1.316   1_545  A
N182       Mn196   2.194       .  S
N183        C529   1.349   1_545  A
Mn184      Cl197   2.549       .  S
C185        C237   1.467       .  S
C185        N527   1.358       .  A
C186        C330   1.478       .  S
C186        N525   1.356       .  A
N187        N188   1.322       .  A
N187        N881   1.319   1_455  A
N187       Mn195   2.211       .  S
N188        C886   1.351       .  A
N189        N190   1.322       .  A
N189        N879   1.315       .  A
N189       Mn196   2.210       .  S
N190        C887   1.353       .  A
N191        N192   1.323       .  A
N191        N877   1.314   1_455  A
N191       Mn195   2.207       .  S
N192        C199   1.355       .  A
N193        N194   1.320       .  A
N193        N875   1.318       .  A
N193       Mn196   2.207       .  S
N194        C198   1.351       .  A
Mn195     Cl1229   2.552   1_445  S
Mn196      Cl541   2.537   1_545  S
Cl197      Mn861   2.547       .  S
Cl197     Mn1227   2.548       .  S
Cl197      Mn540   2.551       .  S
C198        C221   1.464       .  S
C198        N876   1.351       .  A
C199        C225   1.466   1_455  S
C199        N878   1.348   1_455  A
C200        C201   1.407       .  A
C200        C205   1.403       .  A
C200        C229   1.473       .  S
C201        C202   1.399       .  A
C201        C254   1.475       .  S
C202        C203   1.400       .  A
C202        H207   1.085       .  S
C203        C204   1.405       .  A
C203        C250   1.466       .  S
C204        C205   1.400       .  A
C204        C226   1.482       .  S
C205        H206   1.084       .  S
C208        C209   1.413       .  A
C208        C213   1.404       .  A
C208        C245   1.474       .  S
C209        C210   1.405       .  A
C209        C582   1.491       .  S
C210        C211   1.400       .  A
C210        H215   1.085   1_565  S
C211        C212   1.406       .  A
C211        C578   1.470   1_565  S
C212        C213   1.405       .  A
C212        C241   1.487       .  S
C213        H214   1.085       .  S
C216        C258   1.539       .  S
C216        C906   1.522   1_455  S
C216        C910   1.540   1_455  S
C216        C950   1.527   1_455  S
C217        C218   1.349       .  D
C217        H907   1.082       .  S
C218        C904   1.542       .  S
C218        H220   1.088       .  S
H219        C905   1.087       .  S
C221        C222   1.348       .  D
C221        H911   1.086       .  S
C222        C904   1.525       .  S
C222        H224   1.089       .  S
H223        C909   1.083       .  S
C225        C226   1.340   1_655  D
C225        H915   1.087       .  S
C226        H228   1.086       .  S
H227        C913   1.087       .  S
C229        C230   1.341   1_455  D
C229        H231   1.087       .  S
C230        H920   1.087       .  S
H232        C918   1.087       .  S
C233        C234   1.345       .  D
C233        H235   1.087       .  S
C234        C555   1.477       .  S
C234        H580   1.087       .  S
H236        C578   1.086       .  S
C237        C238   1.333       .  D
C237        H239   1.088       .  S
C238        C553   1.470       .  S
C238        H584   1.087       .  S
H240        C582   1.086       .  S
C241        C242   1.341       .  D
C241        H243   1.087   1_565  S
C242        H588   1.087       .  S
H244        C586   1.086       .  S
C245        C246   1.337       .  D
C245        H591   1.086       .  S
C246        H248   1.088   1_565  S
H247        C589   1.087       .  S
C249        C828   1.464       .  S
C249        C250   1.340       .  D
C249        H939   1.088   1_455  S
C250        H252   1.087       .  S
H251        C937   1.087       .  S
C253        C254   1.344   1_655  D
C253        H943   1.087       .  S
C254        H256   1.087       .  S
H255        C941   1.087       .  S
C257        C258   1.337       .  D
C257        H259   1.086       .  S
C258        H260   1.088       .  S
C261        C262   1.341       .  D
C261        H263   1.086       .  S
C262        C904   1.535       .  S
C262        H264   1.088       .  S
C265        C266   1.337       .  D
C265        H267   1.087       .  S
C266        H268   1.088       .  S
C269        C270   1.342       .  D
C269        H271   1.086       .  S
C270        H272   1.087       .  S
C273        C274   1.341       .  D
C273        H275   1.086       .  S
C274        H276   1.087       .  S
C277        C278   1.339       .  D
C277        H279   1.086       .  S
C278        H280   1.087       .  S
C281        C699   1.532       .  S
C281        C282   1.345       .  D
C281        H283   1.088       .  S
C282        H972   1.086       .  S
H284        C970   1.087       .  S
C285        C699   1.538       .  S
C285        C286   1.348       .  D
C285        H975   1.089       .  S
C286        H288   1.085       .  S
H287        C973   1.089       .  S
C289        C290   1.348       .  D
C289        H291   1.087       .  S
C290        H292   1.086       .  S
C293        C294   1.352       .  D
C293        H295   1.083       .  S
C294        C699   1.543       .  S
C294        H296   1.087       .  S
C297        C298   1.343   1_545  D
C297        H299   1.086       .  S
C298        H644   1.089       .  S
H300        C642   1.088       .  S
C301        C302   1.352       .  D
C301        H647   1.088   1_545  S
C302        H304   1.085       .  S
H303        C645   1.089       .  S
C305        C306   1.356       .  D
C305        H307   1.087       .  S
C306        H308   1.083       .  S
C309        C354   1.541       .  S
C309        C310   1.355       .  D
C309        H311   1.087       .  S
C310        H312   1.081       .  S
C313        C314   1.343       .  D
C313        H315   1.087       .  S
C314        H316   1.087       .  S
C317        C318   1.342       .  D
C317        H319   1.086       .  S
C318        H320   1.087       .  S
C321        C322   1.346       .  D
C321        H323   1.086       .  S
C322        H324   1.087       .  S
C325        C326   1.338       .  D
C325        H327   1.086       .  S
C326        H328   1.088       .  S
C329        C345   1.542       .  S
C329        C330   1.350       .  D
C329        H675   1.089       .  S
C330        H332   1.086       .  S
H331        C673   1.087       .  S
C333        C345   1.536   1_545  S
C333        C334   1.353   1_545  D
C333        H679   1.088       .  S
C334        H336   1.085       .  S
H335        C677   1.087       .  S
C337        C345   1.538   1_545  S
C337        C338   1.354       .  D
C337        H339   1.088       .  S
C338        H340   1.081       .  S
C341        C342   1.347       .  D
C341        H343   1.086       .  S
C342        H344   1.087       .  S
C345        C686   1.540       .  S
C346        C347   1.416   1_554  A
C346       C1039   1.405       .  A
C346        C661   1.482       .  S
C347       C1036   1.405       .  A
C347        C669   1.490       .  S
C348       C1035   1.404       .  A
C348        C349   1.399   1_655  A
C348        H353   1.085       .  S
C349        C350   1.405   1_556  A
C349        C665   1.472       .  S
C350        C351   1.403   1_455  A
C350        C657   1.478       .  S
C351       C1034   1.401       .  A
C351        H352   1.085       .  S
C354        C642   1.531       .  S
C354        C645   1.531       .  S
C354        C649   1.538       .  S
C355       C1313   1.543       .  S
C355       C1317   1.539       .  S
C355        C633   1.539   1_655  S
C355       C1326   1.536       .  S
C356        C357   1.410   1_556  A
C356        C621   1.478       .  S
C357        C613   1.480       .  S
C358        C359   1.401       .  A
C358        H363   1.085       .  S
C359        C360   1.404   1_554  A
C359        C609   1.476       .  S
C360        C361   1.403       .  A
C360        C617   1.476       .  S
C361        H362   1.085       .  S
N364        N365   1.320       .  A
N364        N370   1.314       .  A
N364       Mn393   2.194       .  S
N365        C372   1.350       .  A
N366        N368   1.318       .  A
N366        N367   1.320       .  A
N366       Mn382   2.213       .  S
N367        C373   1.353       .  A
N368        N369   1.322       .  A
N368       Mn393   2.204       .  S
N369        C373   1.352       .  A
N370        N371   1.319       .  A
N370       Mn382   2.193       .  S
N371        C372   1.353       .  A
C372        C622   1.465       .  S
C373        C654   1.474       .  S
N374        N380   1.317       .  A
N374        N375   1.321       .  A
N374       Mn404   2.204       .  S
N375        C383   1.353       .  A
N376        N377   1.323       .  A
N376        N378   1.314       .  A
N376       Mn382   2.212       .  S
N377        C384   1.355       .  A
N378        N379   1.321       .  A
N378       Mn404   2.197       .  S
N379        C384   1.352       .  A
N380        N381   1.320       .  A
N380       Mn382   2.204       .  S
N381        C383   1.351       .  A
Mn382      Cl406   2.547       .  S
C383        C637   1.470       .  S
C384        C670   1.476       .  S
N385        N386   1.323       .  A
N385        N391   1.318       .  A
N385       Mn393   2.213       .  S
N386        C394   1.354       .  A
N387        N389   1.315       .  A
N387        N388   1.322       .  A
N387       Mn405   2.212       .  S
N388        C395   1.354       .  A
N389        N390   1.318       .  A
N389       Mn393   2.185       .  S
N390        C395   1.350       .  A
N391        N392   1.323       .  A
N391       Mn405   2.222       .  S
N392        C394   1.354       .  A
Mn393      Cl406   2.548       .  S
C394        C634   1.485       .  S
C395        C666   1.471       .  S
N396        N397   1.316       .  A
N396        N402   1.314       .  A
N396       Mn404   2.169       .  S
N397        C407   1.345       .  A
N398        N399   1.325       .  A
N398        N400   1.320       .  A
N398       Mn405   2.226       .  S
N399        C408   1.355       .  A
N400        N401   1.321       .  A
N400       Mn404   2.213       .  S
N401        C408   1.351       .  A
N402        N403   1.322       .  A
N402       Mn405   2.213       .  S
N403        C407   1.356       .  A
Mn404      Cl406   2.545       .  S
Mn405      Cl406   2.549       .  S
C407        C618   1.462       .  S
C408        C650   1.481       .  S
N409        N410   1.322       .  A
N409        N415   1.318       .  A
N409       Mn438   2.203       .  S
N410        C417   1.352       .  A
N411        N413   1.316       .  A
N411        N412   1.323       .  A
N411       Mn427   2.212       .  S
N412        C418   1.356       .  A
N413        N414   1.315       .  A
N413       Mn438   2.176       .  S
N414        C418   1.345       .  A
N415        N416   1.320       .  A
N415       Mn427   2.213       .  S
N416        C417   1.351       .  A
C417        C601   1.474       .  S
C418        C658   1.461       .  S
N419        N425   1.314       .  A
N419        N420   1.322       .  A
N419       Mn449   2.203       .  S
N420        C428   1.353       .  A
N421        N422   1.325       .  A
N421        N423   1.317       .  A
N421       Mn427   2.227       .  S
N422        C429   1.357       .  A
N423        N424   1.319       .  A
N423       Mn449   2.196       .  S
N424        C429   1.350       .  A
N425        N426   1.322       .  A
N425       Mn427   2.205       .  S
N426        C428   1.354       .  A
Mn427      Cl451   2.554       .  S
C428        C614   1.479       .  S
C429        C685   1.477       .  S
N430        N431   1.319       .  A
N430        N436   1.315       .  A
N430       Mn438   2.194       .  S
N431        C439   1.349       .  A
N432        N434   1.319       .  A
N432        N433   1.324       .  A
N432       Mn450   2.232       .  S
N433        C440   1.355       .  A
N434        N435   1.320       .  A
N434       Mn438   2.199       .  S
N435        C440   1.350       .  A
N436        N437   1.319       .  A
N436       Mn450   2.196       .  S
N437        C439   1.353       .  A
Mn438      Cl451   2.543       .  S
C439        C610   1.464       .  S
C440        C682   1.473       .  S
N441        N442   1.321       .  A
N441        N447   1.317       .  A
N441       Mn449   2.208       .  S
N442        C452   1.351       .  A
N443        N444   1.328       .  A
N443        N445   1.315       .  A
N443       Mn450   2.231       .  S
N444        C453   1.360       .  A
N445        N446   1.315       .  A
N445       Mn449   2.175       .  S
N446        C453   1.344       .  A
N447        N448   1.322       .  A
N447       Mn450   2.207       .  S
N448        C452   1.352       .  A
Mn449      Cl451   2.534       .  S
Mn450      Cl451   2.560       .  S
C452        C605   1.470       .  S
C453        C662   1.473       .  S
N454        N455   1.319       .  A
N454       Mn483   2.204       .  S
N455        C462   1.349       .  A
N456        N457   1.316       .  A
N456       Mn472   2.176       .  S
N458        N459   1.321       .  A
N458       Mn483   2.204       .  S
N459        C463   1.355       .  A
N460        N461   1.325       .  A
N460       Mn472   2.239       .  S
C462        C646   1.467       .  S
C463        C586   1.460       .  S
N464       N1158   1.315       .  A
N464        N465   1.321       .  A
N464       Mn494   2.197       .  S
N465       C1161   1.351       .  A
N466        N467   1.323   1_655  A
N466       N1156   1.319       .  A
N466       Mn472   2.210   1_655  S
N467       C1162   1.353   1_455  A
N468       N1154   1.321       .  A
N468        N469   1.325       .  A
N468       Mn494   2.236       .  S
N469        C474   1.356       .  A
N470       N1152   1.315   1_455  A
N470        N471   1.324       .  A
N470       Mn472   2.216       .  S
N471        C473   1.356   1_455  A
Mn472      Cl840   2.548   1_455  S
C473        C597   1.477       .  S
C473       N1153   1.349       .  A
C474        C630   1.474       .  S
C474       N1155   1.348       .  A
N475        N476   1.322       .  A
N475       N1169   1.315   1_455  A
N475       Mn483   2.203       .  S
N476       C1172   1.356       .  A
N477       N1167   1.317       .  A
N477        N478   1.322       .  A
N477       Mn495   2.212       .  S
N478        C485   1.353       .  A
N479       N1165   1.317   1_455  A
N479        N480   1.322       .  A
N479       Mn483   2.210       .  S
N480       C1173   1.351       .  A
N481       N1163   1.312       .  A
N481        N482   1.320       .  A
N481       Mn495   2.193       .  S
N482        C484   1.350       .  A
Mn483     Cl1184   2.551       .  S
C484       C1281   1.466       .  S
C484       N1164   1.351       .  A
C485        C626   1.477       .  S
C485       N1168   1.352       .  A
N486        N487   1.325       .  A
N486       Mn494   2.229       .  S
N488        N489   1.314       .  A
N488       Mn495   2.176       .  S
N489        C498   1.342       .  A
N490        N491   1.326       .  A
N490       Mn494   2.224       .  S
N492        N493   1.322       .  A
N492       Mn495   2.210       .  S
N493        C497   1.355       .  A
Mn495      Cl496   2.538       .  S
Cl496      Mn816   2.542       .  S
Cl496     Mn1171   2.546       .  S
C497        C641   1.478       .  S
C498        C590   1.473       .  S
N499        N500   1.327       .  A
N499       N1193   1.319       .  A
N499       Mn528   2.241       .  S
N500        C507   1.359       .  A
N501       N1191   1.314   1_455  A
N501        N502   1.319       .  A
N501       Mn517   2.194       .  S
N502        C508   1.351   1_455  A
N503       N1189   1.313       .  A
N503        N504   1.322       .  A
N503       Mn528   2.206       .  S
N504       C1196   1.353       .  A
N505       N1187   1.319   1_455  A
N505        N506   1.324       .  A
N505       Mn517   2.229       .  S
N506       C1195   1.358   1_455  A
C507        C561   1.484       .  S
C507       N1194   1.349       .  A
C508        C574   1.474       .  S
C508       N1192   1.354       .  A
N509        N510   1.319       .  A
N509       Mn539   2.194       .  S
N511        N512   1.323       .  A
N511       Mn517   2.225       .  S
N513        N514   1.328       .  A
N513       Mn539   2.239       .  S
N514        C519   1.360       .  A
N515        N516   1.319       .  A
N515       Mn517   2.193       .  S
N516        C518   1.349       .  A
Mn517     Cl1229   2.545   1_455  S
C518        C577   1.468       .  S
C519        C678   1.479       .  S
N520        N521   1.325       .  A
N520       Mn528   2.219       .  S
N521        C529   1.356       .  A
N522        N523   1.324       .  A
N522       Mn540   2.228       .  S
N523        C530   1.355       .  A
N524        N525   1.325       .  A
N524       Mn528   2.231       .  S
N526        N527   1.325       .  A
N526       Mn540   2.220       .  S
Mn528      Cl541   2.562       .  S
C529        C581   1.474   1_565  S
C530        C674   1.480       .  S
N531        N532   1.322       .  A
N531       N1225   1.319   1_455  A
N531       Mn539   2.211       .  S
N532       C1230   1.353   1_455  A
N533        N534   1.319       .  A
N533       N1223   1.315       .  A
N533       Mn540   2.198       .  S
N534       C1231   1.350       .  A
N535       N1221   1.316   1_455  A
N535        N536   1.322       .  A
N535       Mn539   2.211       .  S
N536        C543   1.354   1_455  A
N537       N1219   1.320       .  A
N537        N538   1.324       .  A
N537       Mn540   2.222       .  S
N538        C542   1.356       .  A
Mn539      Cl885   2.555   1_455  S
Cl541     Mn1205   2.532       .  S
Cl541      Mn883   2.563   1_565  S
C542        C565   1.476       .  S
C542       N1220   1.350       .  A
C543        C569   1.478       .  S
C543       N1222   1.353       .  A
C544        C545   1.412       .  A
C544        C549   1.411   1_455  A
C544        C573   1.484       .  S
C545        C546   1.396       .  A
C545        C598   1.479       .  S
C546        C547   1.397       .  A
C546        H551   1.086       .  S
C547        C548   1.411       .  A
C547        C594   1.474       .  S
C548        C549   1.409   1_455  A
C548        C570   1.490       .  S
C549        H550   1.083       .  S
C552        C553   1.416       .  A
C552        C557   1.398       .  A
C552        C589   1.481       .  S
C553        C554   1.401       .  A
C554        C555   1.396       .  A
C554        H559   1.085       .  S
C555        C556   1.404       .  A
C556        C557   1.403       .  A
C556        C585   1.475       .  S
C557        H558   1.084       .  S
C560       C1250   1.540       .  S
C560       C1254   1.529       .  S
C560        C602   1.535       .  S
C560       C1294   1.542   1_455  S
C561        C562   1.345       .  D
C561       H1251   1.086       .  S
C562       C1248   1.539       .  S
C562        H564   1.088       .  S
H563       C1249   1.083       .  S
C565        C566   1.350       .  D
C565       H1255   1.084       .  S
C566       C1248   1.537       .  S
C566        H568   1.087       .  S
H567       C1253   1.085   1_655  S
C569        C570   1.345   1_655  D
C569       H1259   1.086       .  S
C570        H572   1.087       .  S
H571       C1257   1.087       .  S
C573        C574   1.345   1_455  D
C573        H575   1.087       .  S
C574       H1264   1.086       .  S
H576       C1262   1.087       .  S
C577        C578   1.339   1_565  D
C577        H579   1.087       .  S
C581        C582   1.347   1_545  D
C581        H583   1.087       .  S
C585        C586   1.334       .  D
C585        H587   1.087       .  S
C589        C590   1.334       .  D
C590        H592   1.087       .  S
C593       C1172   1.470   1_655  S
C593        C594   1.338   1_655  D
C593       H1283   1.088       .  S
C594        H596   1.087       .  S
H595       C1281   1.087       .  S
C597        C598   1.341   1_655  D
C597       H1287   1.087       .  S
C598        H600   1.087       .  S
H599       C1285   1.087       .  S
C601        C602   1.353       .  D
C601        H603   1.084       .  S
C602        H604   1.087       .  S
C605        C606   1.347       .  D
C605        H607   1.085       .  S
C606       C1248   1.529       .  S
C606        H608   1.089       .  S
C609        C610   1.338       .  D
C609        H611   1.087       .  S
C610        H612   1.087       .  S
C613        C614   1.345       .  D
C613        H615   1.086       .  S
C614        H616   1.087       .  S
C617        C618   1.335       .  D
C617        H619   1.087       .  S
C618        H620   1.087       .  S
C621        C622   1.341       .  D
C621        H623   1.087       .  S
C622        H624   1.086       .  S
C625       C1043   1.536       .  S
C625        C626   1.353       .  D
C625        H627   1.088       .  S
C626       H1316   1.084       .  S
H628       C1314   1.086       .  S
C629       C1043   1.535       .  S
C629        C630   1.350       .  D
C629       H1319   1.089       .  S
C630        H632   1.086       .  S
H631       C1317   1.087   1_455  S
C633        C634   1.352       .  D
C633        H635   1.088       .  S
C634        H636   1.083       .  S
C637        C638   1.349       .  D
C637        H639   1.082       .  S
C638       C1043   1.535       .  S
C638        H640   1.088       .  S
C641        C642   1.346       .  D
C641        H643   1.086       .  S
C645        C646   1.345       .  D
C646        H648   1.086       .  S
C649        C650   1.349       .  D
C649        H651   1.087       .  S
C650        H652   1.086       .  S
C653        C654   1.349       .  D
C653        H655   1.089       .  S
C654        H656   1.083       .  S
C657        C658   1.339       .  D
C657        H659   1.086       .  S
C658        H660   1.087       .  S
C661        C662   1.337       .  D
C661        H663   1.087       .  S
C662        H664   1.088       .  S
C665        C666   1.344       .  D
C665        H667   1.086       .  S
C666        H668   1.087       .  S
C669        C670   1.349       .  D
C669        H671   1.086       .  S
C670        H672   1.086       .  S
C673        C674   1.355       .  D
C674        H676   1.081       .  S
C677        C678   1.346       .  D
C678        H680   1.086       .  S
C681        C682   1.349       .  D
C681        H683   1.088       .  S
C682        H684   1.086       .  S
C685        C686   1.347       .  D
C685        H687   1.081       .  S
C686        H688   1.088       .  S
C689       C1361   1.541       .  S
C689       C1365   1.540       .  S
C689       C1369   1.534       .  S
C689       C1030   1.547       .  S
C690        C691   1.411   1_554  A
C690       C1005   1.484       .  S
C691       C1013   1.475       .  S
C692        C693   1.398       .  A
C692        H697   1.085       .  S
C693        C694   1.404   1_556  A
C693       C1009   1.469       .  S
C694        C695   1.402       .  A
C694       C1001   1.477       .  S
C695        H696   1.084       .  S
C698        C986   1.535       .  S
C698        C989   1.539       .  S
C698        C993   1.545   1_565  S
C698       C1341   1.532       .  S
C699        C977   1.536       .  S
C700        C701   1.405   1_556  A
C700       C1049   1.399       .  A
C700        C965   1.481       .  S
C701       C1046   1.400       .  A
C701        C957   1.465       .  S
C702       C1045   1.406       .  A
C702        C703   1.407   1_565  A
C702        H707   1.084       .  S
C703        C704   1.413   1_554  A
C703        C953   1.485       .  S
C704        C705   1.399   1_545  A
C704        C961   1.477       .  S
C705       C1044   1.398       .  A
C705        H706   1.086       .  S
N708        N709   1.320       .  A
N708        N714   1.314       .  A
N708       Mn737   2.203       .  S
N709        C716   1.351       .  A
N710        N712   1.318       .  A
N710        N711   1.325       .  A
N710       Mn726   2.225       .  S
N711        C717   1.356       .  A
N712        N713   1.318       .  A
N712       Mn737   2.192       .  S
N713        C717   1.349       .  A
N714        N715   1.321       .  A
N714       Mn726   2.193       .  S
N715        C716   1.353       .  A
C716        C966   1.470       .  S
C717        C998   1.475       .  S
N718        N724   1.319       .  A
N718        N719   1.327       .  A
N718       Mn748   2.242       .  S
N719        C727   1.359       .  A
N720        N721   1.323       .  A
N720        N722   1.315       .  A
N720       Mn726   2.213       .  S
N721        C728   1.356       .  A
N722        N723   1.318       .  A
N722       Mn748   2.186       .  S
N723        C728   1.348       .  A
N724        N725   1.319       .  A
N724       Mn726   2.204       .  S
N725        C727   1.349       .  A
Mn726      Cl750   2.551       .  S
C727        C981   1.482       .  S
C728       C1014   1.472       .  S
N729        N730   1.324       .  A
N729        N735   1.319       .  A
N729       Mn737   2.223       .  S
N730        C738   1.356       .  A
N731        N733   1.313       .  A
N731        N732   1.325       .  A
N731       Mn749   2.217       .  S
N732        C739   1.358       .  A
N733        N734   1.314       .  A
N733       Mn737   2.169       .  S
N734        C739   1.347       .  A
N735        N736   1.320       .  A
N735       Mn749   2.203       .  S
N736        C738   1.350       .  A
Mn737      Cl750   2.539       .  S
C738        C978   1.478       .  S
C739       C1010   1.473       .  S
N740        N741   1.325       .  A
N740        N746   1.315       .  A
N740       Mn748   2.220       .  S
N741        C751   1.357       .  A
N742        N743   1.325       .  A
N742        N744   1.320       .  A
N742       Mn749   2.231       .  S
N743        C752   1.356       .  A
N744        N745   1.322       .  A
N744       Mn748   2.221       .  S
N745        C752   1.353       .  A
N746        N747   1.317       .  A
N746       Mn749   2.181       .  S
N747        C751   1.347       .  A
Mn748      Cl750   2.553       .  S
Mn749      Cl750   2.554       .  S
C751        C962   1.473       .  S
C752        C994   1.487       .  S
N753        N754   1.324       .  A
N753        N759   1.318       .  A
N753       Mn782   2.222       .  S
N754        C761   1.356       .  A
N755        N757   1.315       .  A
N755        N756   1.322       .  A
N755       Mn771   2.219       .  S
N756        C762   1.356       .  A
N757        N758   1.317       .  A
N757       Mn782   2.171       .  S
N758        C762   1.346       .  A
N759        N760   1.319       .  A
N759       Mn771   2.196       .  S
N760        C761   1.348       .  A
C761        C945   1.474       .  S
C762       C1002   1.463       .  S
N763        N769   1.313       .  A
N763        N764   1.319       .  A
N763       Mn793   2.193       .  S
N764        C772   1.353       .  A
N765        N766   1.328       .  A
N765        N767   1.318       .  A
N765       Mn771   2.237       .  S
N766        C773   1.359       .  A
N767        N768   1.321       .  A
N767       Mn793   2.211       .  S
N768        C773   1.352       .  A
N769        N770   1.318       .  A
N769       Mn771   2.178       .  S
N770        C772   1.348       .  A
Mn771      Cl795   2.546       .  S
C772        C958   1.463       .  S
C773       C1029   1.487       .  S
N774        N775   1.322       .  A
N774        N780   1.315       .  A
N774       Mn782   2.215       .  S
N775        C783   1.354       .  A
N776        N778   1.318       .  A
N776        N777   1.322       .  A
N776       Mn794   2.222       .  S
N777        C784   1.354       .  A
N778        N779   1.319       .  A
N778       Mn782   2.192       .  S
N779        C784   1.349       .  A
N780        N781   1.320       .  A
N780       Mn794   2.194       .  S
N781        C783   1.352       .  A
Mn782      Cl795   2.552       .  S
C783        C954   1.473       .  S
C784       C1026   1.467       .  S
N785        N786   1.320       .  A
N785        N791   1.317       .  A
N785       Mn793   2.206       .  S
N786        C796   1.351       .  A
N787        N788   1.323       .  A
N787        N789   1.315       .  A
N787       Mn794   2.218       .  S
N788        C797   1.356       .  A
N789        N790   1.320       .  A
N789       Mn793   2.191       .  S
N790        C797   1.351       .  A
N791        N792   1.321       .  A
N791       Mn794   2.200       .  S
N792        C796   1.351       .  A
Mn793      Cl795   2.542       .  S
Mn794      Cl795   2.549       .  S
C796        C949   1.465       .  S
C797       C1006   1.474       .  S
N798        N799   1.320       .  A
N798       N1148   1.318   1_545  A
N798       Mn827   2.201       .  S
N799        C806   1.349       .  A
N800       N1146   1.314       .  A
N800        N801   1.317       .  A
N800       Mn816   2.185       .  S
N801       C1151   1.352       .  A
N802       N1144   1.314   1_545  A
N802        N803   1.321       .  A
N802       Mn827   2.208       .  S
N803        C807   1.355   1_545  A
N804       N1142   1.319       .  A
N804        N805   1.324       .  A
N804       Mn816   2.226       .  S
N805       C1150   1.355       .  A
C806        C990   1.481       .  S
C806       N1149   1.357   1_545  A
C807        C930   1.462       .  S
C807       N1145   1.346       .  A
N808        N809   1.324       .  A
N808       Mn838   2.207       .  S
N810        N811   1.322       .  A
N810       Mn816   2.210       .  S
N812        N813   1.325       .  A
N812       Mn838   2.225       .  S
N813        C818   1.355       .  A
N814        N815   1.321       .  A
N814       Mn816   2.210       .  S
N815        C817   1.351       .  A
C817        C941   1.480       .  S
C818        C974   1.477       .  S
N819        N820   1.319       .  A
N819       Mn827   2.186       .  S
N821        N822   1.317       .  A
N821       Mn839   2.187       .  S
N822        C829   1.347       .  A
N823        N824   1.324       .  A
N823       Mn827   2.223       .  S
N825        N826   1.319       .  A
N825       Mn839   2.194       .  S
N826        C828   1.351   1_655  A
C829        C970   1.475       .  S
N830        N831   1.318       .  A
N830       N1180   1.319       .  A
N830       Mn838   2.196       .  S
N831       C1185   1.347       .  A
N832        N833   1.316       .  A
N832       N1178   1.312   1_545  A
N832       Mn839   2.165       .  S
N833        C842   1.346       .  A
N834       N1176   1.315       .  A
N834        N835   1.325       .  A
N834       Mn838   2.216       .  S
N835       C1186   1.358       .  A
N836       N1174   1.318   1_545  A
N836        N837   1.323       .  A
N836       Mn839   2.219       .  S
N837        C841   1.354       .  A
Mn838     Cl1184   2.555   1_655  S
Mn839      Cl840   2.542   1_545  S
Cl840     Mn1182   2.548       .  S
C841        C985   1.483       .  S
C841       N1175   1.355   1_545  A
C842        C934   1.465       .  S
C842       N1179   1.356   1_545  A
N843        N844   1.321       .  A
N843       Mn872   2.194       .  S
N844        C851   1.352   1_655  A
N845        N846   1.319       .  A
N845       Mn861   2.189       .  S
N846        C852   1.352       .  A
N847        N848   1.321       .  A
N847       Mn872   2.201       .  S
N849        N850   1.323       .  A
N849       Mn861   2.225       .  S
C851        C905   1.465       .  S
C852        C918   1.463       .  S
N853       N1203   1.313   1_545  A
N853        N854   1.319       .  A
N853       Mn883   2.182       .  S
N854       C1206   1.352   1_545  A
N855        N856   1.320       .  A
N855       N1201   1.319       .  A
N855       Mn861   2.207       .  S
N856       C1207   1.351       .  A
N857       N1199   1.318   1_545  A
N857        N858   1.326       .  A
N857       Mn883   2.226       .  S
N858        C863   1.357   1_545  A
N859       N1197   1.315       .  A
N859        N860   1.319       .  A
N859       Mn861   2.192       .  S
N860        C862   1.349       .  A
C862        C921   1.465       .  S
C862       N1198   1.354       .  A
C863       C1022   1.477       .  S
C863       N1200   1.349       .  A
N864        N865   1.313       .  A
N864       N1214   1.314       .  A
N864       Mn872   2.161       .  S
N865        C873   1.342       .  A
N866       N1212   1.319   1_545  A
N866        N867   1.322       .  A
N866       Mn884   2.215       .  S
N867        C874   1.353       .  A
N868       N1210   1.319       .  A
N868        N869   1.326       .  A
N868       Mn872   2.221       .  S
N869       C1218   1.356       .  A
N870       N1208   1.314   1_545  A
N870        N871   1.319       .  A
N870       Mn884   2.198       .  S
N871       C1217   1.350       .  A
Mn872      Cl885   2.556       .  S
C873        C925   1.454       .  S
C873       N1215   1.357       .  A
C874       C1018   1.478       .  S
C874       N1213   1.352   1_545  A
N875        N876   1.321       .  A
N875       Mn883   2.202       .  S
N877        N878   1.317       .  A
N877       Mn884   2.185       .  S
N879        N880   1.323       .  A
N879       Mn883   2.206       .  S
N880        C887   1.354       .  A
N881        N882   1.323       .  A
N881       Mn884   2.222       .  S
N882        C886   1.356   1_655  A
Mn884     Cl1229   2.546   1_545  S
Cl885     Mn1228   2.540       .  S
C886        C909   1.485       .  S
C887        C913   1.478       .  S
C888        C889   1.410       .  A
C888        C893   1.407       .  A
C888        C917   1.475       .  S
C889        C890   1.405       .  A
C889        C942   1.493       .  S
C890        C891   1.406       .  A
C890        H895   1.084       .  S
C891        C892   1.410       .  A
C891        C938   1.471       .  S
C892        C893   1.400       .  A
C892        C914   1.490       .  S
C893        H894   1.084       .  S
C896        C897   1.409   1_565  A
C896        C901   1.397       .  A
C896        C933   1.471       .  S
C897        C898   1.402       .  A
C897       C1270   1.479   1_545  S
C898        C899   1.397       .  A
C898        H903   1.085       .  S
C899        C900   1.405       .  A
C899       C1266   1.468       .  S
C900        C901   1.402   1_545  A
C900        C929   1.478       .  S
C901        H902   1.085       .  S
C904        C946   1.535       .  S
C905        C906   1.342   1_455  D
C906        H908   1.088       .  S
C909        C910   1.348   1_455  D
C910        H912   1.086       .  S
C913        C914   1.347       .  D
C914        H916   1.087       .  S
C917        C918   1.339       .  D
C917        H919   1.087       .  S
C921        C922   1.339       .  D
C921        H923   1.087       .  S
C922       C1243   1.473       .  S
C922       H1268   1.086       .  S
H924       C1266   1.087       .  S
C925        C926   1.335       .  D
C925        H927   1.087       .  S
C926       C1241   1.472       .  S
C926       H1272   1.086       .  S
H928       C1270   1.087       .  S
C929        C930   1.338   1_545  D
C929        H931   1.087       .  S
C930       H1276   1.087       .  S
H932       C1274   1.088       .  S
C933        C934   1.336   1_565  D
C933       H1279   1.087       .  S
C934        H936   1.088       .  S
H935       C1277   1.086       .  S
C937        C938   1.339       .  D
C938        H940   1.087       .  S
C941        C942   1.345       .  D
C942        H944   1.087       .  S
C945        C946   1.349       .  D
C945        H947   1.084       .  S
C946        H948   1.087       .  S
C949        C950   1.348       .  D
C949        H951   1.085       .  S
C950        H952   1.088       .  S
C953        C954   1.346       .  D
C953        H955   1.087       .  S
C954        H956   1.086       .  S
C957        C958   1.336       .  D
C957        H959   1.087       .  S
C958        H960   1.088       .  S
C961        C962   1.339       .  D
C961        H963   1.087       .  S
C962        H964   1.088       .  S
C965        C966   1.342       .  D
C965        H967   1.087       .  S
C966        H968   1.087       .  S
C969        C970   1.343   1_455  D
C969        H971   1.087       .  S
C973        C974   1.348       .  D
C974        H976   1.086       .  S
C977        C978   1.346       .  D
C977        H979   1.087       .  S
C978        H980   1.086       .  S
C981        C982   1.350       .  D
C981        H983   1.083       .  S
C982        H984   1.087       .  S
C985        C986   1.347   1_545  D
C985        H987   1.086       .  S
C986       H1332   1.089       .  S
H988       C1330   1.089       .  S
C989        C990   1.349   1_565  D
C989       H1335   1.088       .  S
C990        H992   1.084       .  S
H991       C1333   1.088       .  S
C993        C994   1.353       .  D
C993        H995   1.087       .  S
C994        H996   1.083       .  S
C997       C1042   1.538       .  S
C997        C998   1.352       .  D
C997        H999   1.087       .  S
C998       H1000   1.083       .  S
C1001      C1002   1.338       .  D
C1001      H1003   1.087       .  S
C1002      H1004   1.087       .  S
C1005      C1006   1.347       .  D
C1005      H1007   1.087       .  S
C1006      H1008   1.087       .  S
C1009      C1010   1.346       .  D
C1009      H1011   1.086       .  S
C1010      H1012   1.087       .  S
C1013      C1014   1.339       .  D
C1013      H1015   1.087       .  S
C1014      H1016   1.087       .  S
C1017      C1033   1.542   1_565  S
C1017      C1018   1.355   1_565  D
C1017      H1363   1.087       .  S
C1018      H1020   1.082       .  S
H1019      C1361   1.088       .  S
C1021      C1033   1.535       .  S
C1021      C1022   1.346   1_545  D
C1021      H1367   1.087       .  S
C1022      H1024   1.086       .  S
H1023      C1365   1.087       .  S
C1025      C1033   1.530       .  S
C1025      C1026   1.346       .  D
C1025      H1027   1.089       .  S
C1026      H1028   1.086       .  S
C1029      C1030   1.351       .  D
C1029      H1031   1.082       .  S
C1030      H1032   1.088       .  S
C1033      C1374   1.533   1_545  S
C1034      C1035   1.408   1_554  A
C1034      C1349   1.476       .  S
C1035      C1357   1.479       .  S
C1036      C1037   1.400       .  A
C1036      H1041   1.085       .  S
C1037      C1038   1.410   1_556  A
C1037      C1353   1.477       .  S
C1038      C1039   1.408       .  A
C1038      C1345   1.493       .  S
C1039      H1040   1.084       .  S
C1042      C1330   1.526       .  S
C1042      C1333   1.542       .  S
C1042      C1337   1.533       .  S
C1043      C1321   1.534       .  S
C1044      C1045   1.408   1_556  A
C1044      C1309   1.474       .  S
C1045      C1301   1.484       .  S
C1046      C1047   1.400       .  A
C1046      H1051   1.085       .  S
C1047      C1048   1.408   1_554  A
C1047      C1297   1.478       .  S
C1048      C1049   1.405       .  A
C1048      C1305   1.473       .  S
C1049      H1050   1.085       .  S
N1052      N1053   1.321       .  A
N1052      N1058   1.315       .  A
N1052     Mn1081   2.201       .  S
N1053      C1060   1.352       .  A
N1054      N1056   1.319       .  A
N1054      N1055   1.321       .  A
N1054     Mn1070   2.209       .  S
N1055      C1061   1.353       .  A
N1056      N1057   1.323       .  A
N1056     Mn1081   2.217       .  S
N1057      C1061   1.353       .  A
N1058      N1059   1.319       .  A
N1058     Mn1070   2.193       .  S
N1059      C1060   1.352       .  A
C1060      C1310   1.472       .  S
C1061      C1342   1.478       .  S
N1062      N1068   1.320       .  A
N1062      N1063   1.322       .  A
N1062     Mn1092   2.207       .  S
N1063      C1071   1.351       .  A
N1064      N1065   1.323       .  A
N1064      N1066   1.313       .  A
N1064     Mn1070   2.201       .  S
N1065      C1072   1.355       .  A
N1066      N1067   1.317       .  A
N1066     Mn1092   2.180       .  S
N1067      C1072   1.346       .  A
N1068      N1069   1.323       .  A
N1068     Mn1070   2.219       .  S
N1069      C1071   1.352       .  A
Mn1070    Cl1094   2.545       .  S
C1071      C1325   1.473       .  S
C1072      C1358   1.462       .  S
N1073      N1074   1.324       .  A
N1073      N1079   1.319       .  A
N1073     Mn1081   2.223       .  S
N1074      C1082   1.356       .  A
N1075      N1077   1.313       .  A
N1075      N1076   1.319       .  A
N1075     Mn1093   2.189       .  S
N1076      C1083   1.350       .  A
N1077      N1078   1.323       .  A
N1077     Mn1081   2.204       .  S
N1078      C1083   1.355       .  A
N1079      N1080   1.322       .  A
N1079     Mn1093   2.221       .  S
N1080      C1082   1.353       .  A
Mn1081    Cl1094   2.552       .  S
C1082      C1322   1.482       .  S
C1083      C1354   1.472       .  S
N1084      N1085   1.315       .  A
N1084      N1090   1.314       .  A
N1084     Mn1092   2.180       .  S
N1085      C1095   1.346       .  A
N1086      N1087   1.320       .  A
N1086      N1088   1.319       .  A
N1086     Mn1093   2.200       .  S
N1087      C1096   1.348       .  A
N1088      N1089   1.322       .  A
N1088     Mn1092   2.212       .  S
N1089      C1096   1.355       .  A
N1090      N1091   1.323       .  A
N1090     Mn1093   2.206       .  S
N1091      C1095   1.356       .  A
Mn1092    Cl1094   2.544       .  S
Mn1093    Cl1094   2.544       .  S
C1095      C1306   1.462       .  S
C1096      C1338   1.475       .  S
N1097      N1098   1.325       .  A
N1097      N1103   1.320       .  A
N1097     Mn1126   2.224       .  S
N1098      C1105   1.356       .  A
N1099      N1101   1.316       .  A
N1099      N1100   1.326       .  A
N1099     Mn1115   2.229       .  S
N1100      C1106   1.358       .  A
N1101      N1102   1.317       .  A
N1101     Mn1126   2.186       .  S
N1102      C1106   1.347       .  A
N1103      N1104   1.321       .  A
N1103     Mn1115   2.208       .  S
N1104      C1105   1.349       .  A
C1105      C1289   1.483       .  S
C1106      C1346   1.475       .  S
N1107      N1113   1.314       .  A
N1107      N1108   1.322       .  A
N1107     Mn1137   2.204       .  S
N1108      C1116   1.354       .  A
N1109      N1110   1.326       .  A
N1109      N1111   1.318       .  A
N1109     Mn1115   2.237       .  S
N1110      C1117   1.359       .  A
N1111      N1112   1.318       .  A
N1111     Mn1137   2.192       .  S
N1112      C1117   1.348       .  A
N1113      N1114   1.320       .  A
N1113     Mn1115   2.193       .  S
N1114      C1116   1.351       .  A
Mn1115    Cl1139   2.554       .  S
C1116      C1302   1.472       .  S
C1117      C1373   1.479       .  S
N1118      N1119   1.320       .  A
N1118      N1124   1.315       .  A
N1118     Mn1126   2.204       .  S
N1119      C1127   1.350       .  A
N1120      N1122   1.321       .  A
N1120      N1121   1.325       .  A
N1120     Mn1138   2.233       .  S
N1121      C1128   1.355       .  A
N1122      N1123   1.321       .  A
N1122     Mn1126   2.212       .  S
N1123      C1128   1.351       .  A
N1124      N1125   1.322       .  A
N1124     Mn1138   2.201       .  S
N1125      C1127   1.353       .  A
Mn1126    Cl1139   2.548       .  S
C1127      C1298   1.470       .  S
C1128      C1370   1.479       .  S
N1129      N1130   1.322       .  A
N1129      N1135   1.318       .  A
N1129     Mn1137   2.219       .  S
N1130      C1140   1.352       .  A
N1131      N1132   1.323       .  A
N1131      N1133   1.314       .  A
N1131     Mn1138   2.217       .  S
N1132      C1141   1.356       .  A
N1133      N1134   1.317       .  A
N1133     Mn1137   2.174       .  S
N1134      C1141   1.349       .  A
N1135      N1136   1.327       .  A
N1135     Mn1138   2.229       .  S
N1136      C1140   1.358       .  A
Mn1137    Cl1139   2.539       .  S
Mn1138    Cl1139   2.561       .  S
C1140      C1293   1.487       .  S
C1141      C1350   1.469       .  S
N1142      N1143   1.319       .  A
N1142     Mn1171   2.190       .  S
N1143      C1150   1.348       .  A
N1144      N1145   1.316       .  A
N1144     Mn1160   2.172       .  S
N1146      N1147   1.317       .  A
N1146     Mn1171   2.174       .  S
N1147      C1151   1.345       .  A
N1148      N1149   1.326       .  A
N1148     Mn1160   2.230       .  S
C1150      C1334   1.475       .  S
C1151      C1274   1.453       .  S
N1152      N1153   1.320       .  A
N1152     Mn1182   2.191       .  S
N1154      N1155   1.320       .  A
N1154     Mn1160   2.204       .  S
N1156      N1157   1.323       .  A
N1156     Mn1182   2.222       .  S
N1157      C1162   1.353       .  A
N1158      N1159   1.323       .  A
N1158     Mn1160   2.211       .  S
N1159      C1161   1.354       .  A
C1161      C1285   1.473       .  S
C1162      C1318   1.480       .  S
N1163      N1164   1.319       .  A
N1163     Mn1171   2.182       .  S
N1165      N1166   1.325       .  A
N1165     Mn1183   2.221       .  S
N1166      C1173   1.357   1_655  A
N1167      N1168   1.321       .  A
N1167     Mn1171   2.202       .  S
N1169      N1170   1.318       .  A
N1169     Mn1183   2.196       .  S
N1170      C1172   1.349   1_655  A
C1173      C1314   1.486       .  S
N1174      N1175   1.323       .  A
N1174     Mn1182   2.215       .  S
N1176      N1177   1.316       .  A
N1176     Mn1183   2.182       .  S
N1177      C1186   1.345       .  A
N1178      N1179   1.322       .  A
N1178     Mn1182   2.210       .  S
N1180      N1181   1.323       .  A
N1180     Mn1183   2.220       .  S
N1181      C1185   1.355       .  A
Mn1183    Cl1184   2.538   1_655  S
C1185      C1329   1.465       .  S
C1186      C1278   1.466       .  S
N1187      N1188   1.320       .  A
N1187     Mn1216   2.200       .  S
N1188      C1195   1.349       .  A
N1189      N1190   1.318       .  A
N1189     Mn1205   2.183       .  S
N1190      C1196   1.350       .  A
N1191      N1192   1.323       .  A
N1191     Mn1216   2.208       .  S
N1193      N1194   1.320       .  A
N1193     Mn1205   2.207       .  S
C1195      C1249   1.481       .  S
C1196      C1262   1.468       .  S
N1197      N1198   1.320       .  A
N1197     Mn1227   2.198       .  S
N1199      N1200   1.318       .  A
N1199     Mn1205   2.204       .  S
N1201      N1202   1.328       .  A
N1201     Mn1227   2.244       .  S
N1202      C1207   1.359       .  A
N1203      N1204   1.318       .  A
N1203     Mn1205   2.184       .  S
N1204      C1206   1.349       .  A
C1206      C1265   1.462       .  S
C1207      C1366   1.488       .  S
N1208      N1209   1.320       .  A
N1208     Mn1216   2.190       .  S
N1209      C1217   1.353   1_565  A
N1210      N1211   1.322       .  A
N1210     Mn1228   2.220       .  S
N1211      C1218   1.352       .  A
N1212      N1213   1.323       .  A
N1212     Mn1216   2.213       .  S
N1214      N1215   1.323       .  A
N1214     Mn1228   2.213       .  S
Mn1216    Cl1229   2.552       .  S
C1217      C1269   1.466       .  S
C1218      C1362   1.482       .  S
N1219      N1220   1.319       .  A
N1219     Mn1227   2.211       .  S
N1221      N1222   1.323       .  A
N1221     Mn1228   2.210       .  S
N1223      N1224   1.327       .  A
N1223     Mn1227   2.228       .  S
N1224      C1231   1.358       .  A
N1225      N1226   1.320       .  A
N1225     Mn1228   2.209       .  S
N1226      C1230   1.351       .  A
C1230      C1253   1.470   1_655  S
C1231      C1257   1.479       .  S
C1232      C1233   1.409       .  A
C1232      C1237   1.408       .  A
C1232      C1261   1.476       .  S
C1233      C1234   1.399       .  A
C1233      C1286   1.484       .  S
C1234      C1235   1.402       .  A
C1234      H1239   1.086       .  S
C1235      C1236   1.410       .  A
C1235      C1282   1.469       .  S
C1236      C1237   1.405       .  A
C1236      C1258   1.493       .  S
C1237      H1238   1.085       .  S
C1240      C1241   1.408       .  A
C1240      C1245   1.400       .  A
C1240      C1277   1.483       .  S
C1241      C1242   1.405       .  A
C1242      C1243   1.395       .  A
C1242      H1247   1.085       .  S
C1243      C1244   1.399       .  A
C1244      C1245   1.400       .  A
C1244      C1273   1.461       .  S
C1245      H1246   1.085       .  S
C1248      C1290   1.545       .  S
C1249      C1250   1.346   1_655  D
C1250      H1252   1.088       .  S
C1253      C1254   1.347       .  D
C1254      H1256   1.089       .  S
C1257      C1258   1.346       .  D
C1258      H1260   1.086       .  S
C1261      C1262   1.343       .  D
C1261      H1263   1.086       .  S
C1265      C1266   1.338   1_565  D
C1265      H1267   1.088       .  S
C1269      C1270   1.341   1_545  D
C1269      H1271   1.087       .  S
C1273      C1274   1.334       .  D
C1273      H1275   1.087       .  S
C1277      C1278   1.340       .  D
C1278      H1280   1.087       .  S
C1281      C1282   1.342       .  D
C1282      H1284   1.086       .  S
C1285      C1286   1.345       .  D
C1286      H1288   1.086       .  S
C1289      C1290   1.349       .  D
C1289      H1291   1.083       .  S
C1290      H1292   1.088       .  S
C1293      C1294   1.347       .  D
C1293      H1295   1.086       .  S
C1294      H1296   1.087       .  S
C1297      C1298   1.342       .  D
C1297      H1299   1.086       .  S
C1298      H1300   1.087       .  S
C1301      C1302   1.342       .  D
C1301      H1303   1.087       .  S
C1302      H1304   1.087       .  S
C1305      C1306   1.337       .  D
C1305      H1307   1.086       .  S
C1306      H1308   1.088       .  S
C1309      C1310   1.342       .  D
C1309      H1311   1.087       .  S
C1310      H1312   1.087       .  S
C1313      C1314   1.347   1_655  D
C1313      H1315   1.087       .  S
C1317      C1318   1.356       .  D
C1318      H1320   1.082       .  S
C1321      C1322   1.350       .  D
C1321      H1323   1.087       .  S
C1322      H1324   1.086       .  S
C1325      C1326   1.352       .  D
C1325      H1327   1.086       .  S
C1326      H1328   1.089       .  S
C1329      C1330   1.349       .  D
C1329      H1331   1.085       .  S
C1333      C1334   1.349       .  D
C1334      H1336   1.082       .  S
C1337      C1338   1.341       .  D
C1337      H1339   1.087       .  S
C1338      H1340   1.086       .  S
C1341      C1342   1.352       .  D
C1341      H1343   1.089       .  S
C1342      H1344   1.085       .  S
C1345      C1346   1.343       .  D
C1345      H1347   1.086       .  S
C1346      H1348   1.086       .  S
C1349      C1350   1.346       .  D
C1349      H1351   1.086       .  S
C1350      H1352   1.087       .  S
C1353      C1354   1.341       .  D
C1353      H1355   1.087       .  S
C1354      H1356   1.087       .  S
C1357      C1358   1.340       .  D
C1357      H1359   1.087       .  S
C1358      H1360   1.087       .  S
C1361      C1362   1.351       .  D
C1362      H1364   1.086       .  S
C1365      C1366   1.348       .  D
C1366      H1368   1.086       .  S
C1369      C1370   1.350       .  D
C1369      H1371   1.089       .  S
C1370      H1372   1.085       .  S
C1373      C1374   1.343       .  D
C1373      H1375   1.086       .  S
C1374      H1376   1.088       .  S
