geometry optimzed in LAMMPS
_audit_creation_date              2020-12-01 
_audit_creation_method            'lammps2cif' 
_symmetry_space_group_name_H-M    'P1' 
_symmetry_Int_Tables_number       1 
_symmetry_cell_setting            triclinic 
loop_ 
_symmetry_equiv_pos_as_xyz 
  x,y,z 
_cell_length_a                    38.68750068 
_cell_length_b                    25.232829014817806 
_cell_length_c                    34.469078734396184 
_cell_angle_alpha                 90.4017554805136 
_cell_angle_beta                  87.37054940368904 
_cell_angle_gamma                 89.89289758929873 
loop_ 
_atom_site_label 
_atom_site_type_symbol 
_atom_site_fract_x 
_atom_site_fract_y 
_atom_site_fract_z 
_atom_site_charge 
C1          C  0.50626102  0.52926174  0.45853650     0.02700
C2          C  0.00421353  0.47287680  0.45962638     0.02700
C3          C  0.00445817  0.44753167  0.49643789    -0.17900
C4          C  0.00493959  0.47680760  0.03200476     0.02700
C5          C  0.50356984  0.53313901  0.03109588     0.02700
C6          C  0.50518516  0.55854221  0.99423196    -0.17900
H7          H  0.50546476  0.60143167  0.99327591     0.04700
H8          H  0.00442897  0.40463874  0.49743976     0.04700
O9          O  0.50480798  0.24410245  0.16490398    -0.84900
O10         O  0.05598662  0.20100779  0.21313403    -0.82000
C11         C  0.08152107  0.22958171  0.20613734     0.98500
O12         O  0.07705356  0.27833426  0.20450648    -0.82000
O13         O  0.04185216  0.36850106  0.20079768    -0.84700
C14         C  0.01418822  0.38889359  0.18873641     1.03000
O15         O  0.48609202  0.38432728  0.20863305    -0.77400
O16         O  0.45740495  0.29224680  0.18022406    -0.77600
C17         C  0.47697186  0.26613584  0.15532233     1.03000
O18         O  0.45630114  0.20696284  0.21858482    -0.84900
O19         O  0.00858672  0.20138805  0.27169614    -0.82000
C20         C  0.03369351  0.21454897  0.29225023     0.98500
O21         O  0.05239313  0.25641175  0.28524549    -0.82000
O22         O  0.02871372  0.36302702  0.28645856    -0.84600
C23         C  0.50004610  0.36883798  0.30483592     1.03000
O24         O  0.47270444  0.35162056  0.28989787    -0.77500
O25         O  0.44042337  0.26229853  0.26321226    -0.77600
C26         C  0.43532880  0.21949180  0.24555791     1.03000
Cr27       Cr  0.00652950  0.21989753  0.21795523     1.93700
Cr28       Cr  0.04666886  0.31512520  0.24400064     1.93200
Cr29       Cr  0.46705404  0.32055949  0.23542486     1.39100
O30         O  0.00691390  0.28609622  0.23320291    -1.22700
N31         N  0.29798997  0.98938728  0.26772490    -0.36200
N32         N  0.25272882  0.07975849  0.26324832    -0.56800
N33         N  0.19518833  0.00677966  0.26914938    -0.36200
N34         N  0.24034429  0.91691246  0.27993723    -0.56800
C35         C  0.31972147  0.02912176  0.27695438     0.27400
C36         C  0.31378413  0.94324321  0.27575872     0.27400
C37         C  0.17938387  0.05461438  0.26886865     0.27400
C38         C  0.17298002  0.97244523  0.28717756     0.27400
C39         C  0.28347738  0.10366905  0.25599109     0.36000
C40         C  0.22870812  0.11026948  0.24703879     0.36000
C41         C  0.26510275  0.88151321  0.26822192     0.36000
C42         C  0.20951953  0.89175634  0.27882591     0.36000
C43         C  0.34930581  0.00764907  0.29200651    -0.21500
C44         C  0.34579236  0.95337147  0.29059874    -0.21500
C45         C  0.14690171  0.05123789  0.28720738    -0.21500
C46         C  0.14315137  0.99969257  0.29960961    -0.21500
C47         C  0.27891787  0.15036678  0.23585967    -0.22500
C48         C  0.24410619  0.15432755  0.22988246    -0.22500
C49         C  0.25004882  0.83311866  0.26026235    -0.22500
C50         C  0.21482106  0.83948398  0.26724424    -0.22500
C51         C  0.31544548  0.08329031  0.26731106    -0.17900
C52         C  0.30108385  0.89241928  0.26677160    -0.17900
C53         C  0.17688359  0.91630541  0.28733582    -0.17900
C54         C  0.19292077  0.10016752  0.25013319    -0.17900
H55         H  0.37174116  0.02880780  0.30151704     0.15000
H56         H  0.36472427  0.92458388  0.29915065     0.15000
H57         H  0.12791369  0.08262225  0.29112733     0.15000
H58         H  0.12034070  0.98359681  0.31455159     0.15000
H59         H  0.29863006  0.17805178  0.22579626     0.13300
H60         H  0.23158089  0.18618568  0.21500607     0.13300
H61         H  0.26305261  0.79705940  0.25057520     0.13300
H62         H  0.19534883  0.80947704  0.26318620     0.13300
H63         H  0.27606008  0.99254380  0.25147442     0.26600
H64         H  0.21758044  0.99702459  0.25271763     0.26600
O65         O  0.45464124  0.76573361  0.30895136    -0.84900
O66         O  0.02554129  0.78771185  0.29963811    -0.82000
C67         C  0.05636522  0.78174625  0.28650588     0.98500
O68         O  0.06341939  0.74788360  0.26024423    -0.82000
O69         O  0.04195752  0.64918646  0.28896012    -0.84700
C70         C  0.01950517  0.61520805  0.30008469     1.03000
O71         O  0.49580810  0.60539164  0.27715656    -0.77400
O72         O  0.46310180  0.68241283  0.32218714    -0.77600
C73         C  0.45934257  0.73017415  0.33332371     1.03000
O74         O  0.44642677  0.77873293  0.22986800    -0.84900
O75         O  0.01662586  0.80247357  0.22056276    -0.82000
C76         C  0.02352579  0.77821756  0.18926516     0.98500
O77         O  0.03114596  0.72920068  0.18865816    -0.82000
O78         O  0.01881226  0.62526979  0.20891427    -0.84600
C79         C  0.49129056  0.62441562  0.19016400     1.03000
O80         O  0.46346412  0.64194266  0.20733165    -0.77500
O81         O  0.42163452  0.71038510  0.25775284    -0.77600
C82         C  0.41922001  0.75477732  0.24121967     1.03000
Cr83       Cr  0.98648102  0.77862051  0.26410212     1.93700
Cr84       Cr  0.03644159  0.68855374  0.23805277     1.93200
Cr85       Cr  0.46253216  0.66256863  0.26511876     1.39100
O86         O  0.99502182  0.71054163  0.25525015    -1.22700
N87         N  0.00311357  0.97764017  0.43633885    -0.36200
N88         N  0.99287504  0.07530568  0.98197817    -0.56800
N89         N  0.97901800  0.01676343  0.05073962    -0.36200
N90         N  0.99530119  0.91975515  0.00558208    -0.56800
C91         C  0.02166795  0.01231358  0.41415437     0.27400
C92         C  0.01103994  0.92816885  0.42343798     0.27400
C93         C  0.97797054  0.06681747  0.06508819     0.27400
C94         C  0.98965927  0.98459347  0.07906030     0.27400
C95         C  0.99625714  0.09309644  0.44526003     0.36000
C96         C  0.97446115  0.11237090  0.00251740     0.36000
C97         C  0.99098542  0.87891584  0.48084577     0.36000
C98         C  0.98925073  0.90008145  0.04131507     0.36000
C99         C  0.04225040  0.98380702  0.38707876    -0.21500
C100        C  0.03458605  0.93066695  0.39216922    -0.21500
C101        C  0.98648885  0.06623832  0.10374939    -0.21500
C102        C  0.99413831  0.01424970  0.11248736    -0.21500
C103        C  0.97926902  0.14132767  0.44223384    -0.22500
C104        C  0.96550049  0.15359247  0.97864242    -0.22500
C105        C  0.98241596  0.83306866  0.50071325    -0.22500
C106        C  0.98205716  0.84614616  0.03917043    -0.22500
C107        C  0.01726962  0.06845679  0.41569196    -0.17900
C108        C  0.99810857  0.88141623  0.44079588    -0.17900
C109        C  0.99348948  0.92894016  0.07579253    -0.17900
C110        C  0.97052362  0.11263732  0.04335022    -0.17900
H111        H  0.06051629  0.99943435  0.36539329     0.15000
H112        H  0.04612388  0.89771332  0.37596154     0.15000
H113        H  0.98803015  0.09984219  0.12328229     0.15000
H114        H  0.00198092  0.99990743  0.14027341     0.15000
H115        H  0.97749489  0.16559679  0.41663608     0.13300
H116        H  0.95160121  0.18949323  0.98691845     0.13300
H117        H  0.97853656  0.79379288  0.48887502     0.13300
H118        H  0.97723306  0.81850010  0.06256243     0.13300
H119        H  0.98316702  0.98691432  0.45656472     0.26600
H120        H  0.97052047  0.00491632  0.02383606     0.26600
C121        C  0.48357497  0.82369346  0.14942183    -0.20900
C122        C  0.01806452  0.80933764  0.15480895    -0.08900
C123        C  0.04483985  0.83989057  0.13782157     0.29900
C124        C  0.03684475  0.88262938  0.11413056    -0.20900
C125        C  0.00215278  0.89698992  0.10943594    -0.09000
C126        C  0.47563039  0.86856693  0.12857038     0.29900
F127        F  0.44198776  0.88134924  0.12381335    -0.19500
H128        H  0.46261989  0.80120077  0.16283783     0.18300
H129        H  0.05752450  0.90384463  0.09877908     0.18300
F130        F  0.07834557  0.82919810  0.14492191    -0.19500
C131        C  0.45289990  0.83093291  0.40876035    -0.20900
C132        C  0.48790029  0.83547664  0.41694902    -0.08900
C133        C  0.01057843  0.79345900  0.40697889     0.29900
C134        C  0.99895718  0.75060056  0.38484270    -0.20900
C135        C  0.46469071  0.74943851  0.37274781    -0.09000
C136        C  0.44124811  0.78810136  0.38730046     0.29900
F137        F  0.40810220  0.78838046  0.37592353    -0.19500
H138        H  0.43472669  0.86175204  0.41800322     0.18300
H139        H  0.01764035  0.72175155  0.37345162     0.18300
F140        F  0.04401651  0.79498148  0.41721657    -0.19500
C141        C  0.11691183  0.89460490  0.26772265    -0.20900
C142        C  0.14462258  0.88314324  0.29128294    -0.08900
C143        C  0.14094410  0.84065610  0.31762579     0.29900
C144        C  0.11087940  0.80904310  0.31854518    -0.20900
C145        C  0.08351294  0.82088023  0.29456187    -0.09000
C146        C  0.08655938  0.86491249  0.26998504     0.29900
F147        F  0.06096283  0.87723295  0.24597773    -0.19500
H148        H  0.11898808  0.92643560  0.24682428     0.18300
H149        H  0.10939864  0.77450209  0.33701795     0.18300
F150        F  0.16662949  0.82903104  0.34172129    -0.19500
C151        C  0.36250894  0.77578344  0.27535502    -0.20900
C152        C  0.38522588  0.78271965  0.24259503    -0.08900
C153        C  0.37743957  0.82216251  0.21571682     0.29900
C154        C  0.34863939  0.85543325  0.22261787    -0.20900
C155        C  0.32716590  0.85026952  0.25647421    -0.09000
C156        C  0.33402270  0.80949113  0.28248913     0.29900
F157        F  0.31479666  0.80489961  0.31622365    -0.19500
H158        H  0.36821032  0.74657851  0.29705646     0.18300
H159        H  0.34389389  0.88692741  0.20232354     0.18300
F160        F  0.39818258  0.82960963  0.18344433    -0.19500
C161        C  0.49030678  0.24645854  0.08663275    -0.20900
C162        C  0.46511150  0.24938929  0.11723952    -0.08900
C163        C  0.43676500  0.21451562  0.11695487     0.29900
C164        C  0.43710114  0.17175643  0.09072406    -0.20900
C165        C  0.46519347  0.16434387  0.06397511    -0.09000
C166        C  0.99069296  0.20390185  0.06048541     0.29900
F167        F  0.01825467  0.19799487  0.03498676    -0.19500
H168        H  0.01253246  0.27255753  0.08653818     0.18300
H169        H  0.41696511  0.14206758  0.09340724     0.18300
F170        F  0.41185256  0.21638319  0.14598533    -0.19500
C171        C  0.04947995  0.19015841  0.36010101    -0.20700
C172        C  0.04095709  0.17559034  0.32250455    -0.08900
C173        C  0.03229417  0.12228456  0.31486685     0.29900
C174        C  0.02576088  0.08735868  0.34504230    -0.20900
C175        C  0.03118818  0.10252530  0.38332208    -0.09000
C176        C  0.04554448  0.15322898  0.39032912     0.29900
F177        F  0.05277924  0.16854521  0.42690184    -0.19500
H178        H  0.05677120  0.23058175  0.36653263     0.18300
H179        H  0.51428690  0.04948952  0.33836070     0.18300
F180        F  0.02661740  0.10518000  0.27821982    -0.19500
C181        C  0.37739845  0.19961627  0.27916009    -0.20900
C182        C  0.40525951  0.18417787  0.25396686    -0.08900
C183        C  0.40368205  0.13450385  0.23484987     0.29900
C184        C  0.37461840  0.10248795  0.23971134    -0.20900
C185        C  0.34661794  0.11801135  0.26432289    -0.09000
C186        C  0.34826778  0.16676473  0.28438671     0.29900
F187        F  0.32157195  0.18276596  0.30860792    -0.19500
H188        H  0.37789848  0.23737983  0.29423884     0.18300
H189        H  0.37381015  0.06537185  0.22377233     0.18300
F190        F  0.43008240  0.11659389  0.21088829    -0.19500
C191        C  0.13623440  0.22145577  0.23931154    -0.20900
C192        C  0.11606059  0.20580129  0.20836161    -0.08900
C193        C  0.12390319  0.15803565  0.18870217     0.29900
C194        C  0.15002956  0.12493055  0.20150256    -0.20900
C195        C  0.16841852  0.13883168  0.23422521    -0.09000
C196        C  0.16204329  0.18801314  0.25245695     0.29900
F197        F  0.17900014  0.20181645  0.28460722    -0.19500
H198        H  0.12979607  0.25722888  0.25567906     0.18300
H199        H  0.15493242  0.08727982  0.18696235     0.18300
F200        F  0.10480200  0.14197247  0.15873370    -0.19500
C201        C  0.47897335  0.45369673  0.09820907    -0.20900
C202        C  0.00673882  0.44925494  0.07065472    -0.08900
C203        C  0.03766411  0.42606590  0.08261916     0.29900
C204        C  0.04070200  0.40884382  0.12130979    -0.20900
C205        C  0.01309303  0.41459220  0.14928545    -0.09000
C206        C  0.48206100  0.43748892  0.13682002     0.29900
F207        F  0.45425132  0.44418537  0.16184258    -0.19500
H208        H  0.45487746  0.47135537  0.08998227     0.18300
H209        H  0.06458166  0.39018625  0.12919473     0.18300
F210        F  0.06523645  0.42104925  0.05707938    -0.19500
C211        C  0.47132756  0.39435079  0.37148190    -0.20900
C212        C  0.50017781  0.39536721  0.34481172    -0.08900
C213        C  0.53069535  0.41970642  0.35781066     0.29900
C214        C  0.03215194  0.44159637  0.39545152    -0.20900
C215        C  0.50341302  0.44096609  0.42192253    -0.09000
C216        C  0.47284759  0.41680733  0.40934637     0.29900
F217        F  0.44394488  0.41674518  0.43315843    -0.19500
H218        H  0.44747249  0.37611376  0.36306535     0.18300
H219        H  0.05578307  0.46078525  0.40363898     0.18300
F220        F  0.05944671  0.42347585  0.33391055    -0.19500
C221        C  0.02597521  0.58820078  0.13118571    -0.20900
C222        C  0.49344938  0.60341145  0.14839417    -0.08900
C223        C  0.46473662  0.60006354  0.12452262     0.29900
C224        C  0.46855648  0.58112140  0.08559475    -0.20900
C225        C  0.50096772  0.56453111  0.06911199    -0.09000
C226        C  0.02969430  0.56905482  0.09258757     0.29900
F227        F  0.06142315  0.55313129  0.07857376    -0.19500
H228        H  0.04896023  0.59050348  0.14788329     0.18300
H229        H  0.44573136  0.57701091  0.06879517     0.18300
F230        F  0.43274731  0.61383827  0.13892993    -0.19500
C231        C  0.04342574  0.60057908  0.36730196    -0.20900
C232        C  0.01720203  0.59266730  0.34073001    -0.08900
C233        C  0.48655202  0.56709582  0.35472456     0.29900
C234        C  0.48238484  0.55073246  0.39352836    -0.20900
C235        C  0.00890376  0.55696943  0.41968691    -0.09000
C236        C  0.03958831  0.58231102  0.40605367     0.29900
F237        F  0.06643410  0.58748823  0.42975004    -0.19500
H238        H  0.06713250  0.62041618  0.35797151     0.18300
H239        H  0.45860501  0.53108818  0.40289871     0.18300
F240        F  0.46006656  0.55801997  0.33105619    -0.19500
C241        C  0.50626243  0.52926192  0.95853684     0.02700
C242        C  0.00421247  0.47287653  0.95962645     0.02700
C243        C  0.00445741  0.44753110  0.99643787    -0.17900
C244        C  0.00494007  0.47680840  0.53200466     0.02700
C245        C  0.50356808  0.53313936  0.53109557     0.02700
C246        C  0.50518355  0.55854228  0.49423155    -0.17900
H247        H  0.50546321  0.60143172  0.49327536     0.04700
H248        H  0.00442818  0.40463816  0.99743957     0.04700
O249        O  0.50480648  0.24410344  0.66490437    -0.84900
O250        O  0.05598551  0.20100781  0.71313510    -0.82000
C251        C  0.08152047  0.22958094  0.70613915     0.98500
O252        O  0.07705364  0.27833365  0.70450803    -0.82000
O253        O  0.04185245  0.36850097  0.70079716    -0.84700
C254        C  0.01418873  0.38889448  0.68873613     1.03000
O255        O  0.48609101  0.38432858  0.70863298    -0.77400
O256        O  0.45740354  0.29224777  0.68022476    -0.77600
C257        C  0.47697018  0.26613644  0.65532297     1.03000
O258        O  0.45630018  0.20696419  0.71858595    -0.84900
O259        O  0.00858445  0.20138988  0.77169589    -0.82000
C260        C  0.03369084  0.21455061  0.79225068     0.98500
O261        O  0.05239090  0.25641306  0.78524633    -0.82000
O262        O  0.02871251  0.36302913  0.78645766    -0.84600
C263        C  0.50004603  0.36883980  0.80483579     1.03000
O264        O  0.47270420  0.35162250  0.78989805    -0.77500
O265        O  0.44042264  0.26230013  0.76321325    -0.77600
C266        C  0.43532800  0.21949316  0.74555917     1.03000
Cr267      Cr  0.00652862  0.21989884  0.71795474     1.93700
Cr268      Cr  0.04666811  0.31512592  0.74400079     1.93200
Cr269      Cr  0.46705322  0.32056099  0.73542529     1.39100
O270        O  0.00691323  0.28609743  0.73320233    -1.22700
N271        N  0.29798969  0.98938708  0.76772672    -0.36200
N272        N  0.25272838  0.07975865  0.76325262    -0.56800
N273        N  0.19518799  0.00677932  0.76915324    -0.36200
N274        N  0.24034397  0.91691177  0.77993894    -0.56800
C275        C  0.31972143  0.02912132  0.77695623     0.27400
C276        C  0.31378395  0.94324273  0.77575971     0.27400
C277        C  0.17938344  0.05461403  0.76887340     0.27400
C278        C  0.17297972  0.97244428  0.78718086     0.27400
C279        C  0.28347685  0.10366950  0.75599529     0.36000
C280        C  0.22870739  0.11027015  0.74704401     0.36000
C281        C  0.26510238  0.88151278  0.76822303     0.36000
C282        C  0.20951922  0.89175561  0.77882767     0.36000
C283        C  0.34930603  0.00764819  0.79200739    -0.21500
C284        C  0.34579246  0.95337063  0.79059919    -0.21500
C285        C  0.14690134  0.05123690  0.78721218    -0.21500
C286        C  0.14315108  0.99969115  0.79961348    -0.21500
C287        C  0.27891698  0.15036796  0.73586490    -0.22500
C288        C  0.24410522  0.15432880  0.72988823    -0.22500
C289        C  0.25004842  0.83311834  0.76026315    -0.22500
C290        C  0.21482070  0.83948346  0.76724546    -0.22500
C291        C  0.31544524  0.08329023  0.76731400    -0.17900
C292        C  0.30108349  0.89241889  0.76677241    -0.17900
C293        C  0.17688329  0.91630446  0.78733807    -0.17900
C294        C  0.19292005  0.10016765  0.75013834    -0.17900
H295        H  0.37174157  0.02880667  0.80151770     0.15000
H296        H  0.36472447  0.92458281  0.79915047     0.15000
H297        H  0.12791327  0.08262110  0.79113267     0.15000
H298        H  0.12034043  0.98359483  0.81455516     0.15000
H299        H  0.29862902  0.17805332  0.72580167     0.13300
H300        H  0.23157975  0.18618732  0.71501245     0.13300
H301        H  0.26305215  0.79705926  0.75057550     0.13300
H302        H  0.19534846  0.80947656  0.76318735     0.13300
H303        H  0.27605954  0.99254407  0.75147687     0.26600
H304        H  0.21757992  0.99702484  0.75272120     0.26600
O305        O  0.45464170  0.76573392  0.80895142    -0.84900
O306        O  0.02554057  0.78771212  0.79963779    -0.82000
C307        C  0.05636464  0.78174582  0.78650624     0.98500
O308        O  0.06341904  0.74788257  0.76024507    -0.82000
O309        O  0.04195641  0.64918568  0.78896058    -0.84700
C310        C  0.01950392  0.61520741  0.80008496     1.03000
O311        O  0.49580737  0.60539105  0.77715694    -0.77400
O312        O  0.46310195  0.68241304  0.82218725    -0.77600
C313        C  0.45934342  0.73017450  0.83332372     1.03000
O314        O  0.44642611  0.77873224  0.72986798    -0.84900
O315        O  0.01662567  0.80247283  0.72056244    -0.82000
C316        C  0.02352646  0.77821667  0.68926508     0.98500
O317        O  0.03114670  0.72919984  0.68865838    -0.82000
O318        O  0.01881178  0.62526936  0.70891439    -0.84600
C319        C  0.49128927  0.62441480  0.69016416     1.03000
O320        O  0.46346298  0.64194209  0.70733200    -0.77500
O321        O  0.42163401  0.71038486  0.75775350    -0.77600
C322        C  0.41921940  0.75477679  0.74122000     1.03000
Cr323      Cr  0.98648052  0.77862021  0.76410160     1.93700
Cr324      Cr  0.03644124  0.68855299  0.73805317     1.93200
Cr325      Cr  0.46253160  0.66256829  0.76511909     1.39100
O326        O  0.99502136  0.71054125  0.75524996    -1.22700
N327        N  0.00311100  0.97764185  0.93633943    -0.36200
N328        N  0.99287796  0.07530472  0.48197726    -0.56800
N329        N  0.97902328  0.01676377  0.55073926    -0.36200
N330        N  0.99530647  0.91975465  0.50558202    -0.56800
C331        C  0.02166550  0.01231540  0.91415520     0.27400
C332        C  0.01103720  0.92817063  0.92343822     0.27400
C333        C  0.97797567  0.06681802  0.56508745     0.27400
C334        C  0.98966575  0.98459454  0.57905973     0.27400
C335        C  0.99625474  0.09309806  0.94526113     0.36000
C336        C  0.97446437  0.11237026  0.50251653     0.36000
C337        C  0.99098096  0.87891685  0.98084517     0.36000
C338        C  0.98925655  0.90008186  0.54131532     0.36000
C339        C  0.04224785  0.98380908  0.88707937    -0.21500
C340        C  0.03458332  0.93066901  0.89216945    -0.21500
C341        C  0.98649526  0.06623975  0.60374823    -0.21500
C342        C  0.99414559  0.01425144  0.61248630    -0.21500
C343        C  0.97926672  0.14132939  0.94223506    -0.22500
C344        C  0.96550329  0.15359137  0.47864133    -0.22500
C345        C  0.98241148  0.83306909  0.00071193    -0.22500
C346        C  0.98206246  0.84614665  0.53917157    -0.22500
C347        C  0.01726718  0.06845857  0.91569300    -0.17900
C348        C  0.99810517  0.88141793  0.94079544    -0.17900
C349        C  0.99349611  0.92894124  0.57579228    -0.17900
C350        C  0.97052752  0.11263729  0.54334941    -0.17900
H351        H  0.06051366  0.99943660  0.86539389     0.15000
H352        H  0.04612092  0.89771558  0.87596134     0.15000
H353        H  0.98803682  0.09984401  0.62328073     0.15000
H354        H  0.00198926  0.99990978  0.64027211     0.15000
H355        H  0.97749284  0.16559888  0.91663745     0.13300
H356        H  0.95160415  0.18949228  0.48691730     0.13300
H357        H  0.97853276  0.79379344  0.98887314     0.13300
H358        H  0.97723851  0.81850137  0.56256414     0.13300
H359        H  0.98316433  0.98691590  0.95656508     0.26600
H360        H  0.97052493  0.00491587  0.52383620     0.26600
C361        C  0.48357379  0.82369063  0.64942151    -0.20900
C362        C  0.01806627  0.80933684  0.65480868    -0.08900
C363        C  0.04484317  0.83988460  0.63781922     0.29900
C364        C  0.03685002  0.88262466  0.61412847    -0.20900
C365        C  0.00215876  0.89699122  0.60943591    -0.09000
C366        C  0.47562908  0.86856480  0.62857102     0.29900
F367        F  0.44198640  0.88134809  0.62381539    -0.19500
H368        H  0.46261883  0.80119823  0.66283800     0.18300
H369        H  0.05753064  0.90383600  0.59877538     0.18300
F370        F  0.07834854  0.82918588  0.64491714    -0.19500
C371        C  0.45290168  0.83093107  0.90876235    -0.20900
C372        C  0.48790255  0.83547729  0.91694845    -0.08900
C373        C  0.01057815  0.79346378  0.90697556     0.29900
C374        C  0.99895798  0.75060440  0.88483961    -0.20900
C375        C  0.46469315  0.74943878  0.87274747    -0.09000
C376        C  0.44125006  0.78809942  0.88730236     0.29900
F377        F  0.40810335  0.78837609  0.87592802    -0.19500
H378        H  0.43472790  0.86174846  0.91800717     0.18300
H379        H  0.01764215  0.72175797  0.87344689     0.18300
F380        F  0.04401684  0.79499034  0.91721079    -0.19500
C381        C  0.11691172  0.89460434  0.76772408    -0.20900
C382        C  0.14462225  0.88314229  0.79128461    -0.08900
C383        C  0.14094346  0.84065498  0.81762726     0.29900
C384        C  0.11087869  0.80904210  0.81854618    -0.20900
C385        C  0.08351248  0.82087953  0.79456258    -0.09000
C386        C  0.08655921  0.86491200  0.76998598     0.29900
F387        F  0.06096287  0.87723276  0.74597846    -0.19500
H388        H  0.11898820  0.92643534  0.74682597     0.18300
H389        H  0.10939767  0.77450102  0.83701886     0.18300
F390        F  0.16662856  0.82902977  0.84172310    -0.19500
C391        C  0.36250761  0.77578149  0.77535438    -0.20900
C392        C  0.38522518  0.78271889  0.74259506    -0.08900
C393        C  0.37743932  0.82216267  0.71571738     0.29900
C394        C  0.34863931  0.85543368  0.72261865    -0.20900
C395        C  0.32716540  0.85026905  0.75647458    -0.09000
C396        C  0.33402142  0.80948922  0.78248861     0.29900
F397        F  0.31479461  0.80489615  0.81622248    -0.19500
H398        H  0.36820846  0.74657554  0.79705529     0.18300
H399        H  0.34389426  0.88692866  0.70232484     0.18300
F400        F  0.39818258  0.82961039  0.68344518    -0.19500
C401        C  0.49030416  0.24645718  0.58663350    -0.20900
C402        C  0.46510928  0.24938875  0.61724064    -0.08900
C403        C  0.43676282  0.21451488  0.61695706     0.29900
C404        C  0.43709865  0.17175492  0.59072690    -0.20900
C405        C  0.46519052  0.16434191  0.56397739    -0.09000
C406        C  0.99069574  0.20390258  0.56048448     0.29900
F407        F  0.01825770  0.19799600  0.53498613    -0.19500
H408        H  0.01253419  0.27255924  0.58653713     0.18300
H409        H  0.41696265  0.14206611  0.59341082     0.18300
F410        F  0.41185070  0.21638332  0.64598784    -0.19500
C411        C  0.04947704  0.19016006  0.86010158    -0.20700
C412        C  0.04095357  0.17559205  0.82250531    -0.08900
C413        C  0.03229010  0.12228642  0.81486783     0.29900
C414        C  0.02575724  0.08736059  0.84504336    -0.20900
C415        C  0.03118534  0.10252709  0.88332296    -0.09000
C416        C  0.04554185  0.15323068  0.89032976     0.29900
F417        F  0.05277715  0.16854686  0.92690232    -0.19500
H418        H  0.05676873  0.23058327  0.86653300     0.18300
H419        H  0.51428963  0.04949017  0.83835917     0.18300
F420        F  0.02661273  0.10518178  0.77822096    -0.19500
C421        C  0.37739867  0.19961572  0.77916353    -0.20900
C422        C  0.40525888  0.18417881  0.75396853    -0.08900
C423        C  0.40368082  0.13450558  0.73485043     0.29900
C424        C  0.37461737  0.10248927  0.73971244    -0.20900
C425        C  0.34661771  0.11801135  0.76432559    -0.09000
C426        C  0.34826826  0.16676366  0.78439071     0.29900
F427        F  0.32157339  0.18276325  0.80861389    -0.19500
H428        H  0.37789921  0.23737845  0.79424335     0.18300
H429        H  0.37380864  0.06537392  0.72377254     0.18300
F430        F  0.43008036  0.11659679  0.71088721    -0.19500
C431        C  0.13623479  0.22145659  0.73931206    -0.20900
C432        C  0.11605963  0.20579925  0.70836401    -0.08900
C433        C  0.12390067  0.15803091  0.68870743     0.29900
C434        C  0.15002692  0.12492642  0.70150878    -0.20900
C435        C  0.16841745  0.13883077  0.73422957    -0.09000
C436        C  0.16204360  0.18801456  0.75245849     0.29900
F437        F  0.17900186  0.20182113  0.78460705    -0.19500
H438        H  0.12979768  0.25723188  0.75567751     0.18300
H439        H  0.15492862  0.08727386  0.68697072     0.18300
F440        F  0.10479812  0.14196475  0.65874090    -0.19500
C441        C  0.47897196  0.45369834  0.59820934    -0.20900
C442        C  0.00673919  0.44925586  0.57065464    -0.08900
C443        C  0.03766411  0.42606509  0.58261856     0.29900
C444        C  0.04070212  0.40884302  0.62130915    -0.20900
C445        C  0.01309363  0.41459304  0.64928522    -0.09000
C446        C  0.48205993  0.43749110  0.63682035     0.29900
F447        F  0.45425069  0.44418881  0.66184336    -0.19500
H448        H  0.45487613  0.47135742  0.58998277     0.18300
H449        H  0.06458145  0.39018411  0.62919374     0.18300
F450        F  0.06523597  0.42104664  0.55707830    -0.19500
C451        C  0.47132763  0.39435399  0.87148150    -0.20900
C452        C  0.50017811  0.39536886  0.84481162    -0.08900
C453        C  0.53069615  0.41970626  0.85781087     0.29900
C454        C  0.03215116  0.44159437  0.89545219    -0.20900
C455        C  0.50341390  0.44096684  0.92192259    -0.09000
C456        C  0.47284794  0.41681014  0.90934605     0.29900
F457        F  0.44394506  0.41674961  0.93315784    -0.19500
H458        H  0.44747216  0.37611850  0.86306467     0.18300
H459        H  0.05578276  0.46078115  0.90364044     0.18300
F460        F  0.05944692  0.42347134  0.83391216    -0.19500
C461        C  0.02597515  0.58820072  0.63118576    -0.20900
C462        C  0.49344794  0.60341132  0.64839410    -0.08900
C463        C  0.46473526  0.60006474  0.62452231     0.29900
C464        C  0.46855505  0.58112285  0.58559434    -0.20900
C465        C  0.50096615  0.56453169  0.56911165    -0.09000
C466        C  0.02969446  0.56905498  0.59258760     0.29900
F467        F  0.06142326  0.55313057  0.57857423    -0.19500
H468        H  0.04895997  0.59050252  0.64788373     0.18300
H469        H  0.44572995  0.57701320  0.56879462     0.18300
F470        F  0.43274610  0.61384057  0.63892945    -0.19500
C471        C  0.04342519  0.60057623  0.86730150    -0.20900
C472        C  0.01720058  0.59266689  0.84073032    -0.08900
C473        C  0.48655126  0.56709832  0.85472603     0.29900
C474        C  0.48238481  0.55073488  0.89352989    -0.20900
C475        C  0.00890278  0.55696917  0.91968726    -0.09000
C476        C  0.03958796  0.58230822  0.90605320     0.29900
F477        F  0.06643454  0.58748286  0.92974875    -0.19500
H478        H  0.06713252  0.62041124  0.85797040     0.18300
H479        H  0.45860463  0.53109231  0.90290118     0.18300
F480        F  0.46006454  0.55802530  0.83105886    -0.19500
C481        C  0.00626224  0.52926203  0.45853651     0.02700
C482        C  0.50421230  0.47287651  0.45962633     0.02700
C483        C  0.50445695  0.44753139  0.49643785    -0.17900
C484        C  0.50494069  0.47680777  0.03200479     0.02700
C485        C  0.00356878  0.53313883  0.03109586     0.02700
C486        C  0.00518408  0.55854200  0.99423193    -0.17900
H487        H  0.00546375  0.60143145  0.99327586     0.04700
H488        H  0.50442778  0.40463845  0.49743972     0.04700
O489        O  0.00480694  0.24410228  0.16490450    -0.84900
O490        O  0.55598661  0.20100712  0.21313467    -0.82000
C491        C  0.58152129  0.22958077  0.20613856     0.98500
O492        O  0.57705404  0.27833336  0.20450762    -0.82000
O493        O  0.54185282  0.36850024  0.20079758    -0.84700
C494        C  0.51418902  0.38889328  0.18873633     1.03000
O495        O  0.98609119  0.38432696  0.20863299    -0.77400
O496        O  0.95740390  0.29224612  0.18022536    -0.77600
C497        C  0.97697054  0.26613527  0.15532336     1.03000
O498        O  0.95630108  0.20696248  0.21858649    -0.84900
O499        O  0.50858580  0.20138787  0.27169572    -0.82000
C500        C  0.53369203  0.21454893  0.29225063     0.98500
O501        O  0.55239194  0.25641154  0.28524627    -0.82000
O502        O  0.52871323  0.36302732  0.28645827    -0.84600
C503        C  0.00004663  0.36883824  0.30483621     1.03000
O504        O  0.97270482  0.35162124  0.28989829    -0.77500
O505        O  0.94042368  0.26229853  0.26321386    -0.77600
C506        C  0.93532900  0.21949159  0.24555980     1.03000
Cr507      Cr  0.50652957  0.21989744  0.21795473     1.93700
Cr508      Cr  0.54666877  0.31512478  0.24400096     1.93200
Cr509      Cr  0.96705382  0.32055941  0.23542568     1.39100
O510        O  0.50691396  0.28609605  0.23320257    -1.22700
N511        N  0.79798997  0.98938713  0.26772741    -0.36200
N512        N  0.75272895  0.07975844  0.26325128    -0.56800
N513        N  0.69518840  0.00677935  0.26915191    -0.36200
N514        N  0.74034419  0.91691204  0.27993936    -0.56800
C515        C  0.81972157  0.02912149  0.27695693     0.27400
C516        C  0.81378409  0.94324293  0.27576099     0.27400
C517        C  0.67938404  0.05461415  0.26887155     0.27400
C518        C  0.67298005  0.97244482  0.28717991     0.27400
C519        C  0.78347751  0.10366894  0.25599390     0.36000
C520        C  0.72870823  0.11026933  0.24704167     0.36000
C521        C  0.76510268  0.88151303  0.26822369     0.36000
C522        C  0.70951943  0.89175600  0.27882758     0.36000
C523        C  0.84930592  0.00764858  0.29200885    -0.21500
C524        C  0.84579239  0.95337100  0.29060091    -0.21500
C525        C  0.64690193  0.05123764  0.28721040    -0.21500
C526        C  0.64315152  0.99969219  0.29961232    -0.21500
C527        C  0.77891799  0.15036653  0.23586233    -0.22500
C528        C  0.74410630  0.15432726  0.22988514    -0.22500
C529        C  0.75004875  0.83311870  0.26026343    -0.22500
C530        C  0.71482097  0.83948391  0.26724523    -0.22500
C531        C  0.81544564  0.08329012  0.26731375    -0.17900
C532        C  0.80108379  0.89241909  0.26677356    -0.17900
C533        C  0.67688347  0.91630497  0.28733765    -0.17900
C534        C  0.69292089  0.10016729  0.25013607    -0.17900
H535        H  0.87174135  0.02880716  0.30151934     0.15000
H536        H  0.86472431  0.92458329  0.29915259     0.15000
H537        H  0.62791398  0.08262206  0.29113058     0.15000
H538        H  0.62034085  0.98359639  0.31455428     0.15000
H539        H  0.79863019  0.17805141  0.22579875     0.13300
H540        H  0.73158100  0.18618525  0.21500859     0.13300
H541        H  0.76305255  0.79705966  0.25057582     0.13300
H542        H  0.69534874  0.80947713  0.26318668     0.13300
H543        H  0.77606004  0.99254381  0.25147702     0.26600
H544        H  0.71758039  0.99702437  0.25271996     0.26600
O545        O  0.95464182  0.76573376  0.30895168    -0.84900
O546        O  0.52554078  0.78771202  0.29963867    -0.82000
C547        C  0.55636484  0.78174631  0.28650688     0.98500
O548        O  0.56341926  0.74788370  0.26024527    -0.82000
O549        O  0.54195717  0.64918643  0.28896047    -0.84700
C550        C  0.51950477  0.61520797  0.30008478     1.03000
O551        O  0.99580832  0.60539164  0.27715671    -0.77400
O552        O  0.96310236  0.68241297  0.32218745    -0.77600
C553        C  0.95934331  0.73017432  0.33332402     1.03000
O554        O  0.94642659  0.77873287  0.22986843    -0.84900
O555        O  0.51662605  0.80247408  0.22056336    -0.82000
C556        C  0.52352647  0.77821839  0.18926575     0.98500
O557        O  0.53114663  0.72920149  0.18865864    -0.82000
O558        O  0.51881262  0.62527033  0.20891425    -0.84600
C559        C  0.99129011  0.62441518  0.19016418     1.03000
O560        O  0.96346378  0.64194237  0.20733202    -0.77500
O561        O  0.92163454  0.71038506  0.25775352    -0.77600
C562        C  0.91921990  0.75477727  0.24122037     1.03000
Cr563      Cr  0.48648084  0.77862064  0.26410223     1.93700
Cr564      Cr  0.53644170  0.68855408  0.23805320     1.93200
Cr565      Cr  0.96253225  0.66256855  0.26511912     1.39100
O566        O  0.49502179  0.71054181  0.25525020    -1.22700
N567        N  0.50311041  0.97764060  0.43633975    -0.36200
N568        N  0.49287870  0.07530599  0.98197688    -0.56800
N569        N  0.47902223  0.01676452  0.05073861    -0.36200
N570        N  0.49530516  0.91975560  0.00558162    -0.56800
C571        C  0.52166478  0.01231440  0.41415561     0.27400
C572        C  0.51103715  0.92816947  0.42343875     0.27400
C573        C  0.47797441  0.06681869  0.06508696     0.27400
C574        C  0.48966353  0.98459497  0.07905952     0.27400
C575        C  0.49625342  0.09309665  0.44526148     0.36000
C576        C  0.47446499  0.11237158  0.00251595     0.36000
C577        C  0.49098165  0.87891580  0.48084586     0.36000
C578        C  0.48925547  0.90008230  0.04131485     0.36000
C579        C  0.54224763  0.98380830  0.38708012    -0.21500
C580        C  0.53458353  0.93066809  0.39217026    -0.21500
C581        C  0.48649250  0.06624000  0.10374822    -0.21500
C582        C  0.49414222  0.01425157  0.11248648    -0.21500
C583        C  0.47926510  0.14132774  0.44223555    -0.22500
C584        C  0.46550439  0.15359293  0.97864074    -0.22500
C585        C  0.48241167  0.83306844  0.50071286    -0.22500
C586        C  0.48206222  0.84614686  0.03917075    -0.22500
C587        C  0.51726605  0.06845754  0.41569333    -0.17900
C588        C  0.49810564  0.88141659  0.44079613    -0.17900
C589        C  0.49349407  0.92894165  0.07579208    -0.17900
C590        C  0.47052732  0.11263828  0.04334875    -0.17900
H591        H  0.56051361  0.99943601  0.36539489     0.15000
H592        H  0.54612163  0.89771474  0.37596251     0.15000
H593        H  0.48803351  0.09984407  0.12328099     0.15000
H594        H  0.50198476  0.99990967  0.14027267     0.15000
H595        H  0.47749095  0.16559718  0.41663795     0.13300
H596        H  0.45160520  0.18949384  0.98691658     0.13300
H597        H  0.47853236  0.79379283  0.48887428     0.13300
H598        H  0.47723866  0.81850112  0.06256309     0.13300
H599        H  0.48316360  0.98691435  0.45656535     0.26600
H600        H  0.47052485  0.00491705  0.02383516     0.26600
C601        C  0.98357310  0.82368967  0.14942105    -0.20900
C602        C  0.51806600  0.80933907  0.15480961    -0.08900
C603        C  0.54484218  0.83988998  0.13782187     0.29900
C604        C  0.53684821  0.88262907  0.11413059    -0.20900
C605        C  0.50215662  0.89699184  0.10943597    -0.09000
C606        C  0.97562732  0.86856299  0.12857002     0.29900
F607        F  0.94198437  0.88134325  0.12381301    -0.19500
H608        H  0.96261863  0.80119530  0.16283674     0.18300
H609        H  0.55752852  0.90384270  0.09877879     0.18300
F610        F  0.57834761  0.82919531  0.14492210    -0.19500
C611        C  0.95290205  0.83093335  0.40876072    -0.20900
C612        C  0.98790254  0.83547622  0.41694919    -0.08900
C613        C  0.51057667  0.79345998  0.40697883     0.29900
C614        C  0.49895595  0.75060121  0.38484262    -0.20900
C615        C  0.96469188  0.74943873  0.37274804    -0.09000
C616        C  0.94124974  0.78810212  0.38730085     0.29900
F617        F  0.90810377  0.78838202  0.37592412    -0.19500
H618        H  0.93472921  0.86175294  0.41800365     0.18300
H619        H  0.51763945  0.72175263  0.37345164     0.18300
F620        F  0.54401469  0.79498330  0.41721666    -0.19500
C621        C  0.61691134  0.89460543  0.26772492    -0.20900
C622        C  0.64462239  0.88314283  0.29128458    -0.08900
C623        C  0.64094412  0.84065481  0.31762669     0.29900
C624        C  0.61087936  0.80904195  0.31854596    -0.20900
C625        C  0.58351257  0.82088010  0.29456335    -0.09000
C626        C  0.58655880  0.86491319  0.26998730     0.29900
F627        F  0.56096195  0.87723455  0.24598060    -0.19500
H628        H  0.61898740  0.92643675  0.24682704     0.18300
H629        H  0.60939879  0.77450028  0.33701806     0.18300
F630        F  0.66662978  0.82902875  0.34172159    -0.19500
C631        C  0.86250848  0.77578235  0.27535549    -0.20900
C632        C  0.88522574  0.78271957  0.24259588    -0.08900
C633        C  0.87743972  0.82216342  0.21571832     0.29900
C634        C  0.84863960  0.85543418  0.22261969    -0.20900
C635        C  0.82716584  0.85026947  0.25647573    -0.09000
C636        C  0.83402228  0.80949003  0.28248992     0.29900
F637        F  0.81479590  0.80489738  0.31622412    -0.19500
H638        H  0.86820959  0.74657658  0.29705643     0.18300
H639        H  0.84389436  0.88692908  0.20232589     0.18300
F640        F  0.89818298  0.82961156  0.18344618    -0.19500
C641        C  0.99030448  0.24645726  0.08663375    -0.20900
C642        C  0.96510961  0.24938843  0.11724089    -0.08900
C643        C  0.93676290  0.21451509  0.11695687     0.29900
C644        C  0.93709844  0.17175585  0.09072614    -0.20900
C645        C  0.96519037  0.16434288  0.06397672    -0.09000
C646        C  0.49069583  0.20390323  0.06048426     0.29900
F647        F  0.51825783  0.19799676  0.03498596    -0.19500
H648        H  0.51253461  0.27255907  0.08653764     0.18300
H649        H  0.91696225  0.14206728  0.09340970     0.18300
F650        F  0.91185088  0.21638306  0.14598777    -0.19500
C651        C  0.54947664  0.19015920  0.36010225    -0.20700
C652        C  0.54095452  0.17559069  0.32250562    -0.08900
C653        C  0.53229144  0.12228491  0.31486813     0.29900
C654        C  0.52575754  0.08735946  0.34504370    -0.20900
C655        C  0.53118445  0.10252634  0.38332351    -0.09000
C656        C  0.54554058  0.15323014  0.39033056     0.29900
F657        F  0.55277490  0.16854670  0.42690334    -0.19500
H658        H  0.55676793  0.23058256  0.36653376     0.18300
H659        H  0.01429015  0.04948881  0.33835930     0.18300
F660        F  0.52661535  0.10517983  0.27822106    -0.19500
C661        C  0.87739872  0.19961619  0.27916238    -0.20900
C662        C  0.90525978  0.18417761  0.25396919    -0.08900
C663        C  0.90368231  0.13450338  0.23485248     0.29900
C664        C  0.87461862  0.10248756  0.23971404    -0.20900
C665        C  0.84661815  0.11801113  0.26432550    -0.09000
C666        C  0.84826805  0.16676464  0.28438916     0.29900
F667        F  0.82157226  0.18276602  0.30861039    -0.19500
H668        H  0.87789875  0.23737989  0.29424094     0.18300
H669        H  0.87381037  0.06537137  0.22377515     0.18300
F670        F  0.93008269  0.11659315  0.21089105    -0.19500
C671        C  0.63623464  0.22145536  0.23931290    -0.20900
C672        C  0.61606066  0.20580000  0.20836334    -0.08900
C673        C  0.62390303  0.15803369  0.18870468     0.29900
C674        C  0.65002939  0.12492893  0.20150545    -0.20900
C675        C  0.66841859  0.13883103  0.23422772    -0.09000
C676        C  0.66204353  0.18801305  0.25245870     0.29900
F677        F  0.67900056  0.20181729  0.28460864    -0.19500
H678        H  0.62979648  0.25722902  0.25567983     0.18300
H679        H  0.65493210  0.08727774  0.18696583     0.18300
F680        F  0.60480165  0.14196961  0.15873662    -0.19500
C681        C  0.97897230  0.45369648  0.09820906    -0.20900
C682        C  0.50673984  0.44925503  0.07065472    -0.08900
C683        C  0.53766501  0.42606546  0.08261905     0.29900
C684        C  0.54070282  0.40884316  0.12130965    -0.20900
C685        C  0.51309391  0.41459183  0.14928534    -0.09000
C686        C  0.98206002  0.43748890  0.13682006     0.29900
F687        F  0.95425031  0.44418518  0.16184261    -0.19500
H688        H  0.95487634  0.47135485  0.08998221     0.18300
H689        H  0.56458239  0.39018523  0.12919453     0.18300
F690        F  0.56523728  0.42104849  0.05707922    -0.19500
C691        C  0.97132849  0.39435073  0.37148237    -0.20900
C692        C  0.00017853  0.39536754  0.34481193    -0.08900
C693        C  0.03069607  0.41970709  0.35781053     0.29900
C694        C  0.53215101  0.44159574  0.39545167    -0.20900
C695        C  0.00341413  0.44096637  0.42192264    -0.09000
C696        C  0.97284872  0.41680722  0.40934682     0.29900
F697        F  0.94394622  0.41674460  0.43315921    -0.19500
H698        H  0.94747345  0.37611338  0.36306607     0.18300
H699        H  0.55578216  0.46078436  0.40363936     0.18300
F700        F  0.55944622  0.42347476  0.33391100    -0.19500
C701        C  0.52597591  0.58820107  0.13118578    -0.20900
C702        C  0.99344874  0.60341106  0.14839431    -0.08900
C703        C  0.96473588  0.60006312  0.12452291     0.29900
C704        C  0.96855559  0.58112106  0.08559500    -0.20900
C705        C  0.00096679  0.56453091  0.06911201    -0.09000
C706        C  0.52969513  0.56905500  0.09258769     0.29900
F707        F  0.56142402  0.55313135  0.07857405    -0.19500
H708        H  0.54896085  0.59050375  0.14788349     0.18300
H709        H  0.94573039  0.57701053  0.06879555     0.18300
F710        F  0.93274660  0.61383769  0.13893042    -0.19500
C711        C  0.54342496  0.60057882  0.36730219    -0.20900
C712        C  0.51720139  0.59266710  0.34073006    -0.08900
C713        C  0.98655273  0.56709603  0.35472472     0.29900
C714        C  0.98238576  0.55073269  0.39352854    -0.20900
C715        C  0.50890271  0.55696915  0.41968690    -0.09000
C716        C  0.53958732  0.58231071  0.40605386     0.29900
F717        F  0.56643301  0.58748784  0.42975040    -0.19500
H718        H  0.56713176  0.62041591  0.35797191     0.18300
H719        H  0.95860598  0.53108839  0.40289904     0.18300
F720        F  0.96006713  0.55802018  0.33105656    -0.19500
C721        C  0.00626128  0.52926168  0.95853680     0.02700
C722        C  0.50421367  0.47287676  0.95962650     0.02700
C723        C  0.50445858  0.44753130  0.99643790    -0.17900
C724        C  0.50493888  0.47680812  0.53200464     0.02700
C725        C  0.00356925  0.53313964  0.53109556     0.02700
C726        C  0.00518474  0.55854256  0.49423155    -0.17900
H727        H  0.00546435  0.60143201  0.49327534     0.04700
H728        H  0.50442934  0.40463836  0.99743959     0.04700
O729        O  0.00480749  0.24410352  0.66490388    -0.84900
O730        O  0.55598555  0.20100852  0.71313444    -0.82000
C731        C  0.58152030  0.22958190  0.70613797     0.98500
O732        O  0.57705324  0.27833458  0.70450697    -0.82000
O733        O  0.54185185  0.36850176  0.70079722    -0.84700
C734        C  0.51418797  0.38889477  0.68873621     1.03000
O735        O  0.98609177  0.38432886  0.70863299    -0.77400
O736        O  0.95740455  0.29224837  0.68022347    -0.77600
C737        C  0.97697147  0.26613694  0.65532196     1.03000
O738        O  0.95630020  0.20696450  0.71858432    -0.84900
O739        O  0.50858543  0.20139009  0.77169629    -0.82000
C740        C  0.53369233  0.21455076  0.79225031     0.98500
O741        O  0.55239208  0.25641339  0.78524561    -0.82000
O742        O  0.52871303  0.36302901  0.78645787    -0.84600
C743        C  0.00004545  0.36883949  0.80483553     1.03000
O744        O  0.97270377  0.35162187  0.78989761    -0.77500
O745        O  0.94042230  0.26230012  0.76321166    -0.77600
C746        C  0.93532776  0.21949335  0.74555730     1.03000
Cr747      Cr  0.50652860  0.21989898  0.71795520     1.93700
Cr748      Cr  0.54666823  0.31512640  0.74400046     1.93200
Cr749      Cr  0.96705340  0.32056104  0.73542446     1.39100
O750        O  0.50691321  0.28609765  0.73320266    -1.22700
N751        N  0.79798971  0.98938721  0.76772429    -0.36200
N752        N  0.75272823  0.07975863  0.76324967    -0.56800
N753        N  0.69518792  0.00677954  0.76915069    -0.36200
N754        N  0.74034409  0.91691213  0.77993683    -0.56800
C755        C  0.81972131  0.02912158  0.77695376     0.27400
C756        C  0.81378401  0.94324300  0.77575748     0.27400
C757        C  0.67938326  0.05461415  0.76887047     0.27400
C758        C  0.67297970  0.97244459  0.78717847     0.27400
C759        C  0.78347669  0.10366957  0.75599251     0.36000
C760        C  0.72870725  0.11027021  0.74704111     0.36000
C761        C  0.76510248  0.88151293  0.76822129     0.36000
C762        C  0.70951935  0.89175587  0.77882600     0.36000
C763        C  0.84930592  0.00764869  0.79200509    -0.21500
C764        C  0.84579245  0.95337111  0.79059703    -0.21500
C765        C  0.64690110  0.05123703  0.78720913    -0.21500
C766        C  0.64315092  0.99969141  0.79961074    -0.21500
C767        C  0.77891683  0.15036815  0.73586226    -0.22500
C768        C  0.74410509  0.15432899  0.72988552    -0.22500
C769        C  0.75004854  0.83311825  0.76026210    -0.22500
C770        C  0.71482083  0.83948345  0.76724446    -0.22500
C771        C  0.81544505  0.08329041  0.76731138    -0.17900
C772        C  0.80108358  0.89241906  0.76677048    -0.17900
C773        C  0.67688342  0.91630481  0.78733620    -0.17900
C774        C  0.69291991  0.10016778  0.75013543    -0.17900
H775        H  0.87174138  0.02880733  0.80151544     0.15000
H776        H  0.86472448  0.92458342  0.79914851     0.15000
H777        H  0.62791296  0.08262116  0.79112938     0.15000
H778        H  0.62034027  0.98359512  0.81455243     0.15000
H779        H  0.79862886  0.17805365  0.72579921     0.13300
H780        H  0.73157961  0.18618763  0.71500987     0.13300
H781        H  0.76305227  0.79705896  0.75057492     0.13300
H782        H  0.69534860  0.80947638  0.76318687     0.13300
H783        H  0.77605949  0.99254403  0.75147429     0.26600
H784        H  0.71757998  0.99702498  0.75271884     0.26600
O785        O  0.95464112  0.76573372  0.80895109    -0.84900
O786        O  0.52554109  0.78771192  0.79963721    -0.82000
C787        C  0.55636502  0.78174567  0.78650523     0.98500
O788        O  0.56341915  0.74788235  0.76024403    -0.82000
O789        O  0.54195669  0.64918562  0.78896024    -0.84700
C790        C  0.51950425  0.61520744  0.80008490     1.03000
O791        O  0.99580722  0.60539108  0.77715676    -0.77400
O792        O  0.96310143  0.68241287  0.82218692    -0.77600
C793        C  0.95934270  0.73017428  0.83332341     1.03000
O794        O  0.94642629  0.77873229  0.72986754    -0.84900
O795        O  0.51662549  0.80247227  0.72056185    -0.82000
C796        C  0.52352579  0.77821579  0.68926450     0.98500
O797        O  0.53114601  0.72919897  0.68865791    -0.82000
O798        O  0.51881133  0.62526875  0.70891444    -0.84600
C799        C  0.99128981  0.62441530  0.69016395     1.03000
O800        O  0.96346339  0.64194241  0.70733160    -0.77500
O801        O  0.92163401  0.71038485  0.75775278    -0.77600
C802        C  0.91921951  0.75477678  0.74121926     1.03000
Cr803      Cr  0.48648071  0.77862008  0.76410150     1.93700
Cr804      Cr  0.53644109  0.68855257  0.73805276     1.93200
Cr805      Cr  0.96253156  0.66256836  0.76511870     1.39100
O806        O  0.49502136  0.71054105  0.75524993    -1.22700
N807        N  0.50311399  0.97764148  0.93633852    -0.36200
N808        N  0.49287421  0.07530442  0.48197858    -0.56800
N809        N  0.47901910  0.01676265  0.55074028    -0.36200
N810        N  0.49530244  0.91975423  0.50558249    -0.56800
C811        C  0.52166848  0.01231464  0.91415394     0.27400
C812        C  0.51103983  0.92817007  0.92343744     0.27400
C813        C  0.47797189  0.06681678  0.56508871     0.27400
C814        C  0.48966164  0.98459305  0.57906051     0.27400
C815        C  0.49625830  0.09309786  0.94525971     0.36000
C816        C  0.47446044  0.11236955  0.50251804     0.36000
C817        C  0.49098468  0.87891691  0.98084511     0.36000
C818        C  0.48925192  0.90008100  0.54131556     0.36000
C819        C  0.54225043  0.98380787  0.88707800    -0.21500
C820        C  0.53458567  0.93066793  0.89216839    -0.21500
C821        C  0.48649179  0.06623806  0.60374939    -0.21500
C822        C  0.49414192  0.01424958  0.61248715    -0.21500
C823        C  0.47927043  0.14132929  0.94223340    -0.22500
C824        C  0.46549923  0.15359085  0.47864308    -0.22500
C825        C  0.48241588  0.83306928  0.00071235    -0.22500
C826        C  0.48205762  0.84614590  0.53917128    -0.22500
C827        C  0.51727058  0.06845790  0.91569163    -0.17900
C828        C  0.49810799  0.88141761  0.94079520    -0.17900
C829        C  0.49349169  0.92893974  0.57579273    -0.17900
C830        C  0.47052381  0.11263629  0.54335092    -0.17900
H831        H  0.56051618  0.99943499  0.86539229     0.15000
H832        H  0.54612301  0.89771424  0.87596036     0.15000
H833        H  0.48803369  0.09984214  0.62328201     0.15000
H834        H  0.50198574  0.99990757  0.64027280     0.15000
H835        H  0.47749652  0.16559846  0.91663564     0.13300
H836        H  0.45159997  0.18949158  0.48691927     0.13300
H837        H  0.47853712  0.79379344  0.98887391     0.13300
H838        H  0.47723328  0.81850026  0.56256352     0.13300
H839        H  0.48316761  0.98691590  0.95656443     0.26600
H840        H  0.47052058  0.00491517  0.52383730     0.26600
C841        C  0.98357558  0.82369441  0.64942231    -0.20900
C842        C  0.51806486  0.80933539  0.65480804    -0.08900
C843        C  0.54484095  0.83988518  0.63781899     0.29900
C844        C  0.53684671  0.88262497  0.61412851    -0.20900
C845        C  0.50215508  0.89698931  0.60943590    -0.09000
C846        C  0.97563203  0.86856872  0.62857140     0.29900
F847        F  0.94198966  0.88135405  0.62381584    -0.19500
H848        H  0.96262002  0.80120367  0.66283913     0.18300
H849        H  0.55752678  0.90383793  0.59877577     0.18300
F850        F  0.57834658  0.82918867  0.64491710    -0.19500
C851        C  0.95289961  0.83093065  0.90876192    -0.20900
C852        C  0.98790039  0.83547768  0.91694825    -0.08900
C853        C  0.51057986  0.79346288  0.90697561     0.29900
C854        C  0.49895919  0.75060384  0.88483968    -0.20900
C855        C  0.96469200  0.74943852  0.87274723    -0.09000
C856        C  0.94124849  0.78809866  0.88730195     0.29900
F857        F  0.90810183  0.78837452  0.87592744    -0.19500
H858        H  0.93472549  0.86174762  0.91800667     0.18300
H859        H  0.51764305  0.72175702  0.87344684     0.18300
F860        F  0.54401862  0.79498869  0.91721064    -0.19500
C861        C  0.61691223  0.89460371  0.76772177    -0.20900
C862        C  0.64462246  0.88314258  0.79128291    -0.08900
C863        C  0.64094348  0.84065614  0.81762627     0.29900
C864        C  0.61087878  0.80904311  0.81854534    -0.20900
C865        C  0.58351287  0.82087955  0.79456106    -0.09000
C866        C  0.58655981  0.86491122  0.76998370     0.29900
F867        F  0.56096373  0.87723111  0.74597561    -0.19500
H868        H  0.61898888  0.92643411  0.74682317     0.18300
H869        H  0.60939758  0.77450269  0.83701866     0.18300
F870        F  0.66662832  0.82903194  0.84172271    -0.19500
C871        C  0.86250808  0.77578251  0.77535386    -0.20900
C872        C  0.88522532  0.78271889  0.74259415    -0.08900
C873        C  0.87743916  0.82216168  0.71571583     0.29900
C874        C  0.84863911  0.85543272  0.72261681    -0.20900
C875        C  0.82716550  0.85026909  0.75647307    -0.09000
C876        C  0.83402189  0.80949030  0.78248781     0.29900
F877        F  0.81479547  0.80489841  0.81622204    -0.19500
H878        H  0.86820921  0.74657738  0.79705526     0.18300
H879        H  0.84389379  0.88692695  0.70232248     0.18300
F880        F  0.89818215  0.82960839  0.68344326    -0.19500
C881        C  0.99030649  0.24645843  0.58663254    -0.20900
C882        C  0.96511117  0.24938959  0.61723926    -0.08900
C883        C  0.93676489  0.21451544  0.61695501     0.29900
C884        C  0.93710132  0.17175557  0.59072473    -0.20900
C885        C  0.96519361  0.16434294  0.56397572    -0.09000
C886        C  0.49069284  0.20390120  0.56048561     0.29900
F887        F  0.51825446  0.19799417  0.53498684    -0.19500
H888        H  0.51253199  0.27255777  0.58653759     0.18300
H889        H  0.91696544  0.14206651  0.59340822     0.18300
F890        F  0.91185234  0.21638347  0.64598533    -0.19500
C891        C  0.54948017  0.19015946  0.86010047    -0.20700
C892        C  0.54095611  0.17559186  0.82250432    -0.08900
C893        C  0.53229293  0.12228620  0.81486658     0.29900
C894        C  0.52576058  0.08735995  0.84504197    -0.20900
C895        C  0.53118895  0.10252617  0.88332157    -0.09000
C896        C  0.54554556  0.15322969  0.89032842     0.29900
F897        F  0.55278126  0.16854549  0.92690095    -0.19500
H898        H  0.55677174  0.23058268  0.86653204     0.18300
H899        H  0.01428632  0.04949076  0.83836062     0.18300
F900        F  0.52661511  0.10518205  0.77821971    -0.19500
C901        C  0.87739834  0.19961584  0.77916123    -0.20900
C902        C  0.90525857  0.18417906  0.75396623    -0.08900
C903        C  0.90368054  0.13450599  0.73484791     0.29900
C904        C  0.87461712  0.10248962  0.73970982    -0.20900
C905        C  0.84661746  0.11801157  0.76432302    -0.09000
C906        C  0.84826795  0.16676376  0.78438828     0.29900
F907        F  0.82157305  0.18276320  0.80861147    -0.19500
H908        H  0.87789886  0.23737846  0.79424120     0.18300
H909        H  0.87380840  0.06537434  0.72376984     0.18300
F910        F  0.93008010  0.11659739  0.71088464    -0.19500
C911        C  0.63623460  0.22145695  0.73931073    -0.20900
C912        C  0.61605958  0.20580052  0.70836233    -0.08900
C913        C  0.62390081  0.15803283  0.68870495     0.29900
C914        C  0.65002704  0.12492797  0.70150591    -0.20900
C915        C  0.66841737  0.13883132  0.73422707    -0.09000
C916        C  0.66204341  0.18801458  0.75245673     0.29900
F917        F  0.67900154  0.20182022  0.78460558    -0.19500
H918        H  0.62979735  0.25723171  0.75567676     0.18300
H919        H  0.65492885  0.08727585  0.68696727     0.18300
F920        F  0.60479843  0.14196761  0.65873804    -0.19500
C921        C  0.97897307  0.45369882  0.59820937    -0.20900
C922        C  0.50673811  0.44925564  0.57065463    -0.08900
C923        C  0.53766321  0.42606554  0.58261865     0.29900
C924        C  0.54070130  0.40884369  0.62130928    -0.20900
C925        C  0.51309274  0.41459333  0.64928530    -0.09000
C926        C  0.98206095  0.43749133  0.63682033     0.29900
F927        F  0.95425174  0.44418927  0.66184334    -0.19500
H928        H  0.95487733  0.47135824  0.58998285     0.18300
H929        H  0.56458077  0.39018525  0.62919393     0.18300
F930        F  0.56523515  0.42104759  0.55707846    -0.19500
C931        C  0.97132660  0.39435426  0.87148100    -0.20900
C932        C  0.00017734  0.39536848  0.84481144    -0.08900
C933        C  0.03069545  0.41970531  0.85781110     0.29900
C934        C  0.53215206  0.44159522  0.89545196    -0.20900
C935        C  0.00341276  0.44096659  0.92192249    -0.09000
C936        C  0.97284674  0.41681047  0.90934557     0.29900
F937        F  0.94394361  0.41675061  0.93315700    -0.19500
H938        H  0.94747106  0.37611927  0.86306389     0.18300
H939        H  0.55578360  0.46078243  0.90363995     0.18300
F940        F  0.55944732  0.42347302  0.83391153    -0.19500
C941        C  0.52597435  0.58820034  0.63118572    -0.20900
C942        C  0.99344869  0.60341181  0.64839392    -0.08900
C943        C  0.96473612  0.60006530  0.62452197     0.29900
C944        C  0.96855606  0.58112335  0.58559404    -0.20900
C945        C  0.00096720  0.56453202  0.56911159    -0.09000
C946        C  0.52969351  0.56905470  0.59258752     0.29900
F947        F  0.56142229  0.55313045  0.57857395    -0.19500
H948        H  0.54895925  0.59050217  0.64788355     0.18300
H949        H  0.94573104  0.57701376  0.56879418     0.18300
F950        F  0.93274691  0.61384126  0.63892891    -0.19500
C951        C  0.54342590  0.60057648  0.86730132    -0.20900
C952        C  0.51720117  0.59266703  0.84073030    -0.08900
C953        C  0.98655059  0.56709823  0.85472584     0.29900
C954        C  0.98238395  0.55073472  0.89352968    -0.20900
C955        C  0.50890376  0.55696943  0.91968731    -0.09000
C956        C  0.53958886  0.58230853  0.90605306     0.29900
F957        F  0.56643555  0.58748328  0.92974845    -0.19500
H958        H  0.56713317  0.62041153  0.85797005     0.18300
H959        H  0.95860369  0.53109224  0.90290082     0.18300
F960        F  0.96006398  0.55802533  0.83105849    -0.19500
loop_ 
_geom_bond_atom_site_label_1 
_geom_bond_atom_site_label_2 
_geom_bond_distance 
_geom_bond_site_symmetry_2 
_ccdc_geom_bond_type 
C1          C482   1.426       .  A
C1          C246   1.430       .  A
C1          C715   1.514       .  S
C2            C3   1.425       .  A
C2          C481   1.426       .  A
C2          C695   1.526       .  S
C3          C244   1.428       .  A
C3            H8   1.083       .  S
C4          C243   1.428   1_554  A
C4          C485   1.423       .  A
C4          C202   1.511       .  S
C5            C6   1.426   1_554  A
C5          C484   1.423       .  A
C5          C225   1.526       .  S
C6          C241   1.430       .  A
C6            H7   1.083       .  S
O9           C17   1.269       .  A
O9         Cr507   1.936       .  S
O10          C11   1.240       .  A
O10         Cr27   1.970       .  S
C11         C192   1.469       .  S
C11          O12   1.244       .  A
O12         Cr28   1.982       .  S
O13          C14   1.275       .  A
O13         Cr28   2.030       .  S
C14         C205   1.513       .  S
C14         O495   1.264   1_455  A
O15         C494   1.264       .  A
O15         Cr29   1.987       .  S
O16          C17   1.294       .  A
O16         Cr29   2.078       .  S
C17         C162   1.470       .  S
O18          C26   1.244       .  A
O18        Cr507   1.970       .  S
O19          C20   1.272       .  A
O19         Cr27   1.919       .  S
C20         C172   1.474       .  S
C20          O21   1.299       .  A
O21         Cr28   2.079       .  S
O22         C503   1.260       .  A
O22         Cr28   1.991       .  S
C23         C212   1.528       .  S
C23          O24   1.273       .  A
C23         O502   1.260       .  A
O24         Cr29   2.051       .  S
O25          C26   1.256       .  A
O25         Cr29   2.019       .  S
C26         C182   1.486       .  S
Cr27        O489   1.936       .  S
Cr27        O498   1.970   1_455  S
Cr27         O30   1.748       .  S
Cr28         O30   1.759       .  S
Cr29        O510   1.767       .  S
O30        Cr509   1.767   1_455  S
N31          C36   1.350       .  A
N31          C35   1.355   1_565  A
N31          H63   1.041       .  S
N32          C39   1.349       .  A
N32          C40   1.349       .  A
N33          C38   1.355   1_545  A
N33          C37   1.352       .  A
N33          H64   1.041   1_545  S
N34          C41   1.354       .  A
N34          C42   1.354       .  A
C35          C43   1.389       .  A
C35          C51   1.420       .  A
C36          C52   1.412       .  A
C36          C44   1.385       .  A
C37          C45   1.384       .  A
C37          C54   1.412       .  A
C38          C53   1.424       .  A
C38          C46   1.391       .  A
C39          C51   1.411       .  A
C39          C47   1.387       .  A
C40          C54   1.408       .  A
C40          C48   1.386       .  A
C41          C49   1.385       .  A
C41          C52   1.418       .  A
C42          C50   1.388       .  A
C42          C53   1.423       .  A
C43          C44   1.377   1_545  A
C43          H55   1.082       .  S
C44          H56   1.083       .  S
C45          C46   1.378   1_545  A
C45          H57   1.083       .  S
C46          H58   1.082       .  S
C47          C48   1.375       .  A
C47          H59   1.082       .  S
C48          H60   1.082       .  S
C49          C50   1.382       .  A
C49          H61   1.082       .  S
C50          H62   1.082       .  S
C51         C185   1.492       .  S
C52         C155   1.494       .  S
C53         C142   1.505       .  S
C54         C195   1.484       .  S
O65          C73   1.252       .  A
O65        Cr563   1.961       .  S
O66          C67   1.264       .  A
O66         Cr83   2.001   1_455  S
C67         C145   1.477       .  S
C67          O68   1.261       .  A
O68         Cr84   1.995       .  S
O69          C70   1.270       .  A
O69         Cr84   2.042       .  S
C70         C232   1.515       .  S
C70         O551   1.261   1_455  A
O71         C550   1.261       .  A
O71         Cr85   1.990       .  S
O72          C73   1.268       .  A
O72         Cr85   2.028       .  S
C73         C135   1.464       .  S
O74          C82   1.263       .  A
O74        Cr563   1.990       .  S
O75          C76   1.254       .  A
O75         Cr83   1.957   1_455  S
C76         C122   1.452       .  S
C76          O77   1.271       .  A
O77         Cr84   2.012       .  S
O78         C559   1.271   1_455  A
O78         Cr84   2.017       .  S
C79         C222   1.529       .  S
C79          O80   1.281       .  A
C79         O558   1.271       .  A
O80         Cr85   2.054       .  S
O81          C82   1.266       .  A
O81         Cr85   2.014       .  S
C82         C152   1.490       .  S
Cr83        O545   1.961       .  S
Cr83        O554   1.990       .  S
Cr83         O86   1.770       .  S
Cr84         O86   1.770   1_455  S
Cr85        O566   1.770       .  S
O86        Cr565   1.770       .  S
N87          C92   1.352       .  A
N87          C91   1.352   1_565  A
N87         H119   1.041   1_455  S
N88          C96   1.351   1_556  A
N88         C335   1.347       .  A
N89          C94   1.352   1_545  A
N89          C93   1.353       .  A
N89         H120   1.040       .  S
N90          C98   1.342       .  A
N90         C337   1.348   1_554  A
C91          C99   1.394   1_545  A
C91         C107   1.427       .  A
C92         C108   1.409   1_455  A
C92         C100   1.381       .  A
C93         C101   1.388       .  A
C93         C110   1.418       .  A
C94         C109   1.415       .  A
C94         C102   1.387   1_565  A
C95         C107   1.414   1_655  A
C95         C103   1.389       .  A
C95         N328   1.347       .  A
C96         C110   1.409       .  A
C96         C104   1.384   1_554  A
C97         C105   1.382       .  A
C97         C108   1.397       .  A
C97         N330   1.348       .  A
C98         C106   1.392       .  A
C98         C109   1.406       .  A
C99         C100   1.384       .  A
C99         H111   1.082       .  S
C100        H112   1.083       .  S
C101        C102   1.383       .  A
C101        H113   1.082       .  S
C102        H114   1.082   1_645  S
C103        C344   1.374       .  A
C103        H115   1.082       .  S
C104        C343   1.374       .  A
C104        H116   1.082       .  S
C105        C346   1.363       .  A
C105        H117   1.082       .  S
C106        C345   1.363       .  A
C106        H118   1.080       .  S
C107        C175   1.495       .  S
C108        C612   1.481       .  S
C109        C125   1.468   1_655  S
C110        C645   1.491       .  S
C121        C126   1.387       .  A
C121        C602   1.403       .  A
C121        H128   1.079       .  S
C122        C123   1.401       .  A
C122        C601   1.403   1_455  A
C123        C124   1.400       .  A
C123        F130   1.357       .  S
C124        C125   1.406       .  A
C124        H129   1.083       .  S
C125        C606   1.396   1_455  A
C126        C605   1.396       .  A
C126        F127   1.358       .  S
C131        C132   1.401       .  A
C131        C136   1.393       .  A
C131        H138   1.084       .  S
C132        C613   1.406       .  A
C132        C588   1.481       .  S
C133        C134   1.406   1_455  A
C133        C612   1.406   1_455  A
C133        F140   1.357       .  S
C134        C615   1.408       .  A
C134        H139   1.084   1_655  S
C135        C136   1.405       .  A
C135        C614   1.408       .  A
C136        F137   1.358       .  S
C141        C142   1.405       .  A
C141        C146   1.394       .  A
C141        H148   1.083       .  S
C142        C143   1.413       .  A
C143        C144   1.411       .  A
C143        F150   1.357       .  S
C144        C145   1.406       .  A
C144        H149   1.083       .  S
C145        C146   1.404       .  A
C146        F147   1.356       .  S
C151        C152   1.411       .  A
C151        C156   1.403       .  A
C151        H158   1.083       .  S
C152        C153   1.406       .  A
C153        C154   1.404       .  A
C153        F160   1.356       .  S
C154        C155   1.408       .  A
C154        H159   1.083       .  S
C155        C156   1.402       .  A
C156        F157   1.357       .  S
C161        C162   1.405       .  A
C161        C646   1.397       .  A
C161        H648   1.084       .  S
C162        C163   1.408       .  A
C163        C164   1.402       .  A
C163        F170   1.358       .  S
C164        C165   1.404       .  A
C164        H169   1.083       .  S
C165        C646   1.407       .  A
C165        C590   1.491       .  S
C166        C641   1.397       .  A
C166        C645   1.407       .  A
C166        F167   1.358   1_655  S
H168        C641   1.084   1_455  S
C171        C172   1.399       .  A
C171        C176   1.406       .  A
C171        H178   1.083       .  S
C172        C173   1.413       .  A
C173        C174   1.383       .  A
C173        F180   1.360       .  S
C174        C175   1.396       .  A
C174        H659   1.082       .  S
C175        C176   1.419       .  A
C176        F177   1.358       .  S
H179        C654   1.082       .  S
C181        C182   1.406       .  A
C181        C186   1.406       .  A
C181        H188   1.083       .  S
C182        C183   1.415       .  A
C183        C184   1.390       .  A
C183        F190   1.358       .  S
C184        C185   1.399       .  A
C184        H189   1.084       .  S
C185        C186   1.410       .  A
C186        F187   1.357       .  S
C191        C192   1.405       .  A
C191        C196   1.399       .  A
C191        H198   1.084       .  S
C192        C193   1.404       .  A
C193        C194   1.399       .  A
C193        F200   1.357       .  S
C194        C195   1.404       .  A
C194        H199   1.083       .  S
C195        C196   1.403       .  A
C196        F197   1.357       .  S
C201        C206   1.405       .  A
C201        C682   1.405       .  A
C201        H208   1.083       .  S
C202        C203   1.411       .  A
C202        C681   1.405   1_455  A
C203        C204   1.415       .  A
C203        F210   1.357       .  S
C204        C205   1.412       .  A
C204        H209   1.083       .  S
C205        C686   1.417   1_455  A
C206        C685   1.417       .  A
C206        F207   1.357       .  S
C211        C212   1.413       .  A
C211        C216   1.423       .  A
C211        H218   1.083       .  S
C212        C213   1.421       .  A
C213        C694   1.410       .  A
C213        F700   1.357       .  S
C214        C693   1.410       .  A
C214        C695   1.406       .  A
C214        H219   1.083       .  S
C215        C216   1.416       .  A
C215        C694   1.406       .  A
C215        C482   1.526       .  S
C216        F217   1.356       .  S
F220        C693   1.357       .  S
C221        C226   1.413       .  A
C221        C702   1.417   1_455  A
C221        H228   1.083       .  S
C222        C223   1.415       .  A
C222        C701   1.417       .  A
C223        C224   1.422       .  A
C223        F230   1.356       .  S
C224        C225   1.414       .  A
C224        H229   1.083       .  S
C225        C706   1.409       .  A
C226        C705   1.409       .  A
C226        F227   1.357       .  S
C231        C232   1.411       .  A
C231        C236   1.418       .  A
C231        H238   1.083       .  S
C232        C713   1.418   1_455  A
C233        C234   1.405       .  A
C233        C712   1.418       .  A
C233        F240   1.358       .  S
C234        C715   1.405       .  A
C234        H239   1.083       .  S
C235        C236   1.412       .  A
C235        C714   1.405   1_455  A
C235        C481   1.514       .  S
C236        F237   1.356       .  S
C241        C722   1.426       .  A
C241        C955   1.514       .  S
C242        C721   1.426       .  A
C242        C243   1.425       .  A
C242        C935   1.526       .  S
C243        H248   1.083       .  S
C244        C725   1.423       .  A
C244        C442   1.511       .  S
C245        C724   1.423       .  A
C245        C246   1.426       .  A
C245        C465   1.526       .  S
C246        H247   1.083       .  S
O249        C257   1.269       .  A
O249       Cr747   1.936       .  S
O250        C251   1.240       .  A
O250       Cr267   1.970       .  S
C251        C432   1.469       .  S
C251        O252   1.244       .  A
O252       Cr268   1.982       .  S
O253        C254   1.275       .  A
O253       Cr268   2.030       .  S
C254        C445   1.513       .  S
C254        O735   1.264   1_455  A
O255        C734   1.264       .  A
O255       Cr269   1.987       .  S
O256        C257   1.294       .  A
O256       Cr269   2.078       .  S
C257        C402   1.470       .  S
O258        C266   1.244       .  A
O258       Cr747   1.970       .  S
O259        C260   1.272       .  A
O259       Cr267   1.919       .  S
C260        C412   1.474       .  S
C260        O261   1.299       .  A
O261       Cr268   2.079       .  S
O262        C743   1.260       .  A
O262       Cr268   1.991       .  S
C263        C452   1.528       .  S
C263        O742   1.260       .  A
C263        O264   1.273       .  A
O264       Cr269   2.051       .  S
O265        C266   1.256       .  A
O265       Cr269   2.019       .  S
C266        C422   1.486       .  S
Cr267       O729   1.936       .  S
Cr267       O738   1.970   1_455  S
Cr267       O270   1.748       .  S
Cr268       O270   1.759       .  S
Cr269       O750   1.767       .  S
O270       Cr749   1.767   1_455  S
N271        C276   1.350       .  A
N271        C275   1.355   1_565  A
N271        H303   1.041       .  S
N272        C279   1.349       .  A
N272        C280   1.349       .  A
N273        C278   1.355   1_545  A
N273        C277   1.352       .  A
N273        H304   1.041   1_545  S
N274        C281   1.354       .  A
N274        C282   1.354       .  A
C275        C283   1.389       .  A
C275        C291   1.420       .  A
C276        C292   1.412       .  A
C276        C284   1.385       .  A
C277        C285   1.384       .  A
C277        C294   1.412       .  A
C278        C293   1.424       .  A
C278        C286   1.391       .  A
C279        C291   1.411       .  A
C279        C287   1.387       .  A
C280        C294   1.408       .  A
C280        C288   1.386       .  A
C281        C289   1.385       .  A
C281        C292   1.418       .  A
C282        C290   1.388       .  A
C282        C293   1.423       .  A
C283        C284   1.377   1_545  A
C283        H295   1.082       .  S
C284        H296   1.083       .  S
C285        C286   1.378   1_545  A
C285        H297   1.083       .  S
C286        H298   1.082       .  S
C287        C288   1.375       .  A
C287        H299   1.082       .  S
C288        H300   1.082       .  S
C289        C290   1.382       .  A
C289        H301   1.082       .  S
C290        H302   1.082       .  S
C291        C425   1.492       .  S
C292        C395   1.494       .  S
C293        C382   1.505       .  S
C294        C435   1.484       .  S
O305        C313   1.252       .  A
O305       Cr803   1.961       .  S
O306        C307   1.264       .  A
O306       Cr323   2.001   1_455  S
C307        C385   1.477       .  S
C307        O308   1.261       .  A
O308       Cr324   1.995       .  S
O309        C310   1.270       .  A
O309       Cr324   2.042       .  S
C310        C472   1.515       .  S
C310        O791   1.261   1_455  A
O311        C790   1.261       .  A
O311       Cr325   1.990       .  S
O312        C313   1.268       .  A
O312       Cr325   2.028       .  S
C313        C375   1.464       .  S
O314        C322   1.263       .  A
O314       Cr803   1.990       .  S
O315        C316   1.254       .  A
O315       Cr323   1.957   1_455  S
C316        C362   1.452       .  S
C316        O317   1.271       .  A
O317       Cr324   2.012       .  S
O318        C799   1.271   1_455  A
O318       Cr324   2.017       .  S
C319        C462   1.529       .  S
C319        O798   1.271       .  A
C319        O320   1.281       .  A
O320       Cr325   2.054       .  S
O321        C322   1.266       .  A
O321       Cr325   2.014       .  S
C322        C392   1.490       .  S
Cr323       O785   1.961       .  S
Cr323       O794   1.990       .  S
Cr323       O326   1.770       .  S
Cr324       O326   1.770   1_455  S
Cr325       O806   1.770       .  S
O326       Cr805   1.770       .  S
N327        C332   1.352       .  A
N327        C331   1.352   1_565  A
N327        H359   1.041   1_455  S
N328        C336   1.351       .  A
N329        C334   1.352   1_545  A
N329        C333   1.353       .  A
N329        H360   1.040       .  S
N330        C338   1.342       .  A
C331        C339   1.394   1_545  A
C331        C347   1.427       .  A
C332        C348   1.409   1_455  A
C332        C340   1.381       .  A
C333        C341   1.388       .  A
C333        C350   1.418       .  A
C334        C349   1.415       .  A
C334        C342   1.387   1_565  A
C335        C347   1.414   1_655  A
C335        C343   1.389       .  A
C336        C350   1.409       .  A
C336        C344   1.384       .  A
C337        C345   1.382   1_556  A
C337        C348   1.397       .  A
C338        C346   1.392       .  A
C338        C349   1.406       .  A
C339        C340   1.384       .  A
C339        H351   1.082       .  S
C340        H352   1.083       .  S
C341        C342   1.383       .  A
C341        H353   1.082       .  S
C342        H354   1.082   1_645  S
C343        H355   1.082       .  S
C344        H356   1.082       .  S
C345        H357   1.082   1_554  S
C346        H358   1.080       .  S
C347        C415   1.495       .  S
C348        C852   1.481       .  S
C349        C365   1.468   1_655  S
C350        C885   1.491       .  S
C361        C842   1.403       .  A
C361        C366   1.387       .  A
C361        H368   1.079       .  S
C362        C841   1.403   1_455  A
C362        C363   1.401       .  A
C363        C364   1.400       .  A
C363        F370   1.357       .  S
C364        C365   1.406       .  A
C364        H369   1.083       .  S
C365        C846   1.396   1_455  A
C366        C845   1.396       .  A
C366        F367   1.358       .  S
C371        C372   1.401       .  A
C371        C376   1.393       .  A
C371        H378   1.084       .  S
C372        C853   1.406       .  A
C372        C828   1.481       .  S
C373        C852   1.406   1_455  A
C373        C374   1.406   1_455  A
C373        F380   1.357       .  S
C374        C855   1.408       .  A
C374        H379   1.084   1_655  S
C375        C854   1.408       .  A
C375        C376   1.405       .  A
C376        F377   1.358       .  S
C381        C382   1.405       .  A
C381        C386   1.394       .  A
C381        H388   1.083       .  S
C382        C383   1.413       .  A
C383        C384   1.411       .  A
C383        F390   1.357       .  S
C384        C385   1.406       .  A
C384        H389   1.083       .  S
C385        C386   1.404       .  A
C386        F387   1.356       .  S
C391        C392   1.411       .  A
C391        C396   1.403       .  A
C391        H398   1.083       .  S
C392        C393   1.406       .  A
C393        C394   1.404       .  A
C393        F400   1.356       .  S
C394        C395   1.408       .  A
C394        H399   1.083       .  S
C395        C396   1.402       .  A
C396        F397   1.357       .  S
C401        C402   1.405       .  A
C401        C886   1.397       .  A
C401        H888   1.084       .  S
C402        C403   1.408       .  A
C403        C404   1.402       .  A
C403        F410   1.358       .  S
C404        C405   1.404       .  A
C404        H409   1.083       .  S
C405        C886   1.407       .  A
C405        C830   1.491       .  S
C406        C881   1.397       .  A
C406        C885   1.407       .  A
C406        F407   1.358   1_655  S
H408        C881   1.084   1_455  S
C411        C412   1.399       .  A
C411        C416   1.406       .  A
C411        H418   1.083       .  S
C412        C413   1.413       .  A
C413        C414   1.383       .  A
C413        F420   1.360       .  S
C414        C415   1.396       .  A
C414        H899   1.082       .  S
C415        C416   1.419       .  A
C416        F417   1.358       .  S
H419        C894   1.082       .  S
C421        C422   1.406       .  A
C421        C426   1.406       .  A
C421        H428   1.083       .  S
C422        C423   1.415       .  A
C423        C424   1.390       .  A
C423        F430   1.358       .  S
C424        C425   1.399       .  A
C424        H429   1.084       .  S
C425        C426   1.410       .  A
C426        F427   1.357       .  S
C431        C432   1.405       .  A
C431        C436   1.399       .  A
C431        H438   1.084       .  S
C432        C433   1.404       .  A
C433        C434   1.399       .  A
C433        F440   1.357       .  S
C434        C435   1.404       .  A
C434        H439   1.083       .  S
C435        C436   1.403       .  A
C436        F437   1.357       .  S
C441        C922   1.405       .  A
C441        C446   1.405       .  A
C441        H448   1.083       .  S
C442        C921   1.405   1_455  A
C442        C443   1.411       .  A
C443        C444   1.415       .  A
C443        F450   1.357       .  S
C444        C445   1.412       .  A
C444        H449   1.083       .  S
C445        C926   1.417   1_455  A
C446        C925   1.417       .  A
C446        F447   1.357       .  S
C451        C452   1.413       .  A
C451        C456   1.423       .  A
C451        H458   1.083       .  S
C452        C453   1.421       .  A
C453        C934   1.410       .  A
C453        F940   1.357       .  S
C454        C933   1.410       .  A
C454        C935   1.406       .  A
C454        H459   1.083       .  S
C455        C934   1.406       .  A
C455        C456   1.416       .  A
C455        C722   1.526       .  S
C456        F457   1.356       .  S
F460        C933   1.357       .  S
C461        C942   1.417   1_455  A
C461        C466   1.413       .  A
C461        H468   1.083       .  S
C462        C941   1.417       .  A
C462        C463   1.415       .  A
C463        C464   1.422       .  A
C463        F470   1.356       .  S
C464        C465   1.414       .  A
C464        H469   1.083       .  S
C465        C946   1.409       .  A
C466        C945   1.409       .  A
C466        F467   1.357       .  S
C471        C472   1.411       .  A
C471        C476   1.418       .  A
C471        H478   1.083       .  S
C472        C953   1.418   1_455  A
C473        C952   1.418       .  A
C473        C474   1.405       .  A
C473        F480   1.358       .  S
C474        C955   1.405       .  A
C474        H479   1.083       .  S
C475        C954   1.405   1_455  A
C475        C476   1.412       .  A
C475        C721   1.514       .  S
C476        F477   1.356       .  S
C481        C726   1.430       .  A
C482        C483   1.425       .  A
C483        C724   1.428       .  A
C483        H488   1.083       .  S
C484        C723   1.428   1_554  A
C484        C682   1.511       .  S
C485        C486   1.426   1_554  A
C485        C705   1.526       .  S
C486        C721   1.430       .  A
C486        H487   1.083       .  S
O489        C497   1.269   1_455  A
O490        C491   1.240       .  A
O490       Cr507   1.970       .  S
C491        C672   1.469       .  S
C491        O492   1.244       .  A
O492       Cr508   1.982       .  S
O493        C494   1.275       .  A
O493       Cr508   2.030       .  S
C494        C685   1.513       .  S
O495       Cr509   1.987       .  S
O496        C497   1.294       .  A
O496       Cr509   2.078       .  S
C497        C642   1.470       .  S
O498        C506   1.244       .  A
O499        C500   1.272       .  A
O499       Cr507   1.919       .  S
C500        C652   1.474       .  S
C500        O501   1.299       .  A
O501       Cr508   2.079       .  S
O502       Cr508   1.991       .  S
C503        C692   1.528       .  S
C503        O504   1.273   1_455  A
O504       Cr509   2.051       .  S
O505        C506   1.256       .  A
O505       Cr509   2.019       .  S
C506        C662   1.486       .  S
Cr507       O510   1.748       .  S
Cr508       O510   1.759       .  S
N511        C516   1.350       .  A
N511        C515   1.355   1_565  A
N511        H543   1.041       .  S
N512        C519   1.349       .  A
N512        C520   1.349       .  A
N513        C518   1.355   1_545  A
N513        C517   1.352       .  A
N513        H544   1.041   1_545  S
N514        C521   1.354       .  A
N514        C522   1.354       .  A
C515        C523   1.389       .  A
C515        C531   1.420       .  A
C516        C532   1.412       .  A
C516        C524   1.385       .  A
C517        C525   1.384       .  A
C517        C534   1.412       .  A
C518        C533   1.424       .  A
C518        C526   1.391       .  A
C519        C531   1.411       .  A
C519        C527   1.387       .  A
C520        C534   1.408       .  A
C520        C528   1.386       .  A
C521        C529   1.385       .  A
C521        C532   1.418       .  A
C522        C530   1.388       .  A
C522        C533   1.423       .  A
C523        C524   1.377   1_545  A
C523        H535   1.082       .  S
C524        H536   1.083       .  S
C525        C526   1.378   1_545  A
C525        H537   1.083       .  S
C526        H538   1.082       .  S
C527        C528   1.375       .  A
C527        H539   1.082       .  S
C528        H540   1.082       .  S
C529        C530   1.382       .  A
C529        H541   1.082       .  S
C530        H542   1.082       .  S
C531        C665   1.492       .  S
C532        C635   1.494       .  S
C533        C622   1.505       .  S
C534        C675   1.484       .  S
O545        C553   1.252       .  A
O546        C547   1.264       .  A
O546       Cr563   2.001       .  S
C547        C625   1.477       .  S
C547        O548   1.261       .  A
O548       Cr564   1.995       .  S
O549        C550   1.270       .  A
O549       Cr564   2.042       .  S
C550        C712   1.515       .  S
O551       Cr565   1.990       .  S
O552        C553   1.268       .  A
O552       Cr565   2.028       .  S
C553        C615   1.464       .  S
O554        C562   1.263       .  A
O555        C556   1.254       .  A
O555       Cr563   1.957       .  S
C556        C602   1.452       .  S
C556        O557   1.271       .  A
O557       Cr564   2.012       .  S
O558       Cr564   2.017       .  S
C559        C702   1.529       .  S
C559        O560   1.281       .  A
O560       Cr565   2.054       .  S
O561        C562   1.266       .  A
O561       Cr565   2.014       .  S
C562        C632   1.490       .  S
Cr563       O566   1.770       .  S
Cr564       O566   1.770       .  S
N567        C572   1.352       .  A
N567        C571   1.352   1_565  A
N567        H599   1.041       .  S
N568        C815   1.347       .  A
N568        C576   1.351   1_556  A
N569        C574   1.352   1_545  A
N569        C573   1.353       .  A
N569        H600   1.040       .  S
N570        C817   1.348   1_554  A
N570        C578   1.342       .  A
C571        C579   1.394   1_545  A
C571        C587   1.427       .  A
C572        C588   1.409       .  A
C572        C580   1.381       .  A
C573        C581   1.388       .  A
C573        C590   1.418       .  A
C574        C589   1.415       .  A
C574        C582   1.387   1_565  A
C575        C587   1.414       .  A
C575        C583   1.389       .  A
C575        N808   1.347       .  A
C576        C590   1.409       .  A
C576        C584   1.384   1_554  A
C577        C585   1.382       .  A
C577        C588   1.397       .  A
C577        N810   1.348       .  A
C578        C586   1.392       .  A
C578        C589   1.406       .  A
C579        C580   1.384       .  A
C579        H591   1.082       .  S
C580        H592   1.083       .  S
C581        C582   1.383       .  A
C581        H593   1.082       .  S
C582        H594   1.082   1_545  S
C583        C824   1.374       .  A
C583        H595   1.082       .  S
C584        C823   1.374       .  A
C584        H596   1.082       .  S
C585        C826   1.363       .  A
C585        H597   1.082       .  S
C586        C825   1.363       .  A
C586        H598   1.080       .  S
C587        C655   1.495       .  S
C589        C605   1.468       .  S
C601        C606   1.387       .  A
C601        H608   1.079       .  S
C602        C603   1.401       .  A
C603        C604   1.400       .  A
C603        F610   1.357       .  S
C604        C605   1.406       .  A
C604        H609   1.083       .  S
C606        F607   1.358       .  S
C611        C612   1.401       .  A
C611        C616   1.393       .  A
C611        H618   1.084       .  S
C613        C614   1.406       .  A
C613        F620   1.357       .  S
C614        H619   1.084       .  S
C615        C616   1.405       .  A
C616        F617   1.358       .  S
C621        C622   1.405       .  A
C621        C626   1.394       .  A
C621        H628   1.083       .  S
C622        C623   1.413       .  A
C623        C624   1.411       .  A
C623        F630   1.357       .  S
C624        C625   1.406       .  A
C624        H629   1.083       .  S
C625        C626   1.404       .  A
C626        F627   1.356       .  S
C631        C632   1.411       .  A
C631        C636   1.403       .  A
C631        H638   1.083       .  S
C632        C633   1.406       .  A
C633        C634   1.404       .  A
C633        F640   1.356       .  S
C634        C635   1.408       .  A
C634        H639   1.083       .  S
C635        C636   1.402       .  A
C636        F637   1.357       .  S
C641        C642   1.405       .  A
C642        C643   1.408       .  A
C643        C644   1.402       .  A
C643        F650   1.358       .  S
C644        C645   1.404       .  A
C644        H649   1.083       .  S
C646        F647   1.358       .  S
C651        C652   1.399       .  A
C651        C656   1.406       .  A
C651        H658   1.083       .  S
C652        C653   1.413       .  A
C653        C654   1.383       .  A
C653        F660   1.360       .  S
C654        C655   1.396       .  A
C655        C656   1.419       .  A
C656        F657   1.358       .  S
C661        C662   1.406       .  A
C661        C666   1.406       .  A
C661        H668   1.083       .  S
C662        C663   1.415       .  A
C663        C664   1.390       .  A
C663        F670   1.358       .  S
C664        C665   1.399       .  A
C664        H669   1.084       .  S
C665        C666   1.410       .  A
C666        F667   1.357       .  S
C671        C672   1.405       .  A
C671        C676   1.399       .  A
C671        H678   1.084       .  S
C672        C673   1.404       .  A
C673        C674   1.399       .  A
C673        F680   1.357       .  S
C674        C675   1.404       .  A
C674        H679   1.083       .  S
C675        C676   1.403       .  A
C676        F677   1.357       .  S
C681        C686   1.405       .  A
C681        H688   1.083       .  S
C682        C683   1.411       .  A
C683        C684   1.415       .  A
C683        F690   1.357       .  S
C684        C685   1.412       .  A
C684        H689   1.083       .  S
C686        F687   1.357       .  S
C691        C692   1.413   1_655  A
C691        C696   1.423       .  A
C691        H698   1.083       .  S
C692        C693   1.421       .  A
C694        H699   1.083       .  S
C695        C696   1.416   1_455  A
C696        F697   1.356       .  S
C701        C706   1.413       .  A
C701        H708   1.083       .  S
C702        C703   1.415       .  A
C703        C704   1.422       .  A
C703        F710   1.356       .  S
C704        C705   1.414   1_655  A
C704        H709   1.083       .  S
C706        F707   1.357       .  S
C711        C712   1.411       .  A
C711        C716   1.418       .  A
C711        H718   1.083       .  S
C713        C714   1.405       .  A
C713        F720   1.358       .  S
C714        H719   1.083       .  S
C715        C716   1.412       .  A
C716        F717   1.356       .  S
C722        C723   1.425       .  A
C723        H728   1.083       .  S
C724        C922   1.511       .  S
C725        C726   1.426       .  A
C725        C945   1.526       .  S
C726        H727   1.083       .  S
O729        C737   1.269   1_455  A
O730        C731   1.240       .  A
O730       Cr747   1.970       .  S
C731        C912   1.469       .  S
C731        O732   1.244       .  A
O732       Cr748   1.982       .  S
O733        C734   1.275       .  A
O733       Cr748   2.030       .  S
C734        C925   1.513       .  S
O735       Cr749   1.987       .  S
O736        C737   1.294       .  A
O736       Cr749   2.078       .  S
C737        C882   1.470       .  S
O738        C746   1.244       .  A
O739        C740   1.272       .  A
O739       Cr747   1.919       .  S
C740        C892   1.474       .  S
C740        O741   1.299       .  A
O741       Cr748   2.079       .  S
O742       Cr748   1.991       .  S
C743        C932   1.528       .  S
C743        O744   1.273   1_455  A
O744       Cr749   2.051       .  S
O745        C746   1.256       .  A
O745       Cr749   2.019       .  S
C746        C902   1.486       .  S
Cr747       O750   1.748       .  S
Cr748       O750   1.759       .  S
N751        C756   1.350       .  A
N751        C755   1.355   1_565  A
N751        H783   1.041       .  S
N752        C759   1.349       .  A
N752        C760   1.349       .  A
N753        C758   1.355   1_545  A
N753        C757   1.352       .  A
N753        H784   1.041   1_545  S
N754        C761   1.354       .  A
N754        C762   1.354       .  A
C755        C763   1.389       .  A
C755        C771   1.420       .  A
C756        C772   1.412       .  A
C756        C764   1.385       .  A
C757        C765   1.384       .  A
C757        C774   1.412       .  A
C758        C773   1.424       .  A
C758        C766   1.391       .  A
C759        C771   1.411       .  A
C759        C767   1.387       .  A
C760        C774   1.408       .  A
C760        C768   1.386       .  A
C761        C769   1.385       .  A
C761        C772   1.418       .  A
C762        C770   1.388       .  A
C762        C773   1.423       .  A
C763        C764   1.377   1_545  A
C763        H775   1.082       .  S
C764        H776   1.083       .  S
C765        C766   1.378   1_545  A
C765        H777   1.083       .  S
C766        H778   1.082       .  S
C767        C768   1.375       .  A
C767        H779   1.082       .  S
C768        H780   1.082       .  S
C769        C770   1.382       .  A
C769        H781   1.082       .  S
C770        H782   1.082       .  S
C771        C905   1.492       .  S
C772        C875   1.494       .  S
C773        C862   1.505       .  S
C774        C915   1.484       .  S
O785        C793   1.252       .  A
O786        C787   1.264       .  A
O786       Cr803   2.001       .  S
C787        C865   1.477       .  S
C787        O788   1.261       .  A
O788       Cr804   1.995       .  S
O789        C790   1.270       .  A
O789       Cr804   2.042       .  S
C790        C952   1.515       .  S
O791       Cr805   1.990       .  S
O792        C793   1.268       .  A
O792       Cr805   2.028       .  S
C793        C855   1.464       .  S
O794        C802   1.263       .  A
O795        C796   1.254       .  A
O795       Cr803   1.957       .  S
C796        C842   1.452       .  S
C796        O797   1.271       .  A
O797       Cr804   2.012       .  S
O798       Cr804   2.017       .  S
C799        C942   1.529       .  S
C799        O800   1.281       .  A
O800       Cr805   2.054       .  S
O801        C802   1.266       .  A
O801       Cr805   2.014       .  S
C802        C872   1.490       .  S
Cr803       O806   1.770       .  S
Cr804       O806   1.770       .  S
N807        C812   1.352       .  A
N807        C811   1.352   1_565  A
N807        H839   1.041       .  S
N808        C816   1.351       .  A
N809        C814   1.352   1_545  A
N809        C813   1.353       .  A
N809        H840   1.040       .  S
N810        C818   1.342       .  A
C811        C819   1.394   1_545  A
C811        C827   1.427       .  A
C812        C828   1.409       .  A
C812        C820   1.381       .  A
C813        C821   1.388       .  A
C813        C830   1.418       .  A
C814        C829   1.415       .  A
C814        C822   1.387   1_565  A
C815        C827   1.414       .  A
C815        C823   1.389       .  A
C816        C830   1.409       .  A
C816        C824   1.384       .  A
C817        C825   1.382   1_556  A
C817        C828   1.397       .  A
C818        C826   1.392       .  A
C818        C829   1.406       .  A
C819        C820   1.384       .  A
C819        H831   1.082       .  S
C820        H832   1.083       .  S
C821        C822   1.383       .  A
C821        H833   1.082       .  S
C822        H834   1.082   1_545  S
C823        H835   1.082       .  S
C824        H836   1.082       .  S
C825        H837   1.082   1_554  S
C826        H838   1.080       .  S
C827        C895   1.495       .  S
C829        C845   1.468       .  S
C841        C846   1.387       .  A
C841        H848   1.079       .  S
C842        C843   1.401       .  A
C843        C844   1.400       .  A
C843        F850   1.357       .  S
C844        C845   1.406       .  A
C844        H849   1.083       .  S
C846        F847   1.358       .  S
C851        C852   1.401       .  A
C851        C856   1.393       .  A
C851        H858   1.084       .  S
C853        C854   1.406       .  A
C853        F860   1.357       .  S
C854        H859   1.084       .  S
C855        C856   1.405       .  A
C856        F857   1.358       .  S
C861        C862   1.405       .  A
C861        C866   1.394       .  A
C861        H868   1.083       .  S
C862        C863   1.413       .  A
C863        C864   1.411       .  A
C863        F870   1.357       .  S
C864        C865   1.406       .  A
C864        H869   1.083       .  S
C865        C866   1.404       .  A
C866        F867   1.356       .  S
C871        C872   1.411       .  A
C871        C876   1.403       .  A
C871        H878   1.083       .  S
C872        C873   1.406       .  A
C873        C874   1.404       .  A
C873        F880   1.356       .  S
C874        C875   1.408       .  A
C874        H879   1.083       .  S
C875        C876   1.402       .  A
C876        F877   1.357       .  S
C881        C882   1.405       .  A
C882        C883   1.408       .  A
C883        C884   1.402       .  A
C883        F890   1.358       .  S
C884        C885   1.404       .  A
C884        H889   1.083       .  S
C886        F887   1.358       .  S
C891        C892   1.399       .  A
C891        C896   1.406       .  A
C891        H898   1.083       .  S
C892        C893   1.413       .  A
C893        C894   1.383       .  A
C893        F900   1.360       .  S
C894        C895   1.396       .  A
C895        C896   1.419       .  A
C896        F897   1.358       .  S
C901        C902   1.406       .  A
C901        C906   1.406       .  A
C901        H908   1.083       .  S
C902        C903   1.415       .  A
C903        C904   1.390       .  A
C903        F910   1.358       .  S
C904        C905   1.399       .  A
C904        H909   1.084       .  S
C905        C906   1.410       .  A
C906        F907   1.357       .  S
C911        C912   1.405       .  A
C911        C916   1.399       .  A
C911        H918   1.084       .  S
C912        C913   1.404       .  A
C913        C914   1.399       .  A
C913        F920   1.357       .  S
C914        C915   1.404       .  A
C914        H919   1.083       .  S
C915        C916   1.403       .  A
C916        F917   1.357       .  S
C921        C926   1.405       .  A
C921        H928   1.083       .  S
C922        C923   1.411       .  A
C923        C924   1.415       .  A
C923        F930   1.357       .  S
C924        C925   1.412       .  A
C924        H929   1.083       .  S
C926        F927   1.357       .  S
C931        C932   1.413   1_655  A
C931        C936   1.423       .  A
C931        H938   1.083       .  S
C932        C933   1.421       .  A
C934        H939   1.083       .  S
C935        C936   1.416   1_455  A
C936        F937   1.356       .  S
C941        C946   1.413       .  A
C941        H948   1.083       .  S
C942        C943   1.415       .  A
C943        C944   1.422       .  A
C943        F950   1.356       .  S
C944        C945   1.414   1_655  A
C944        H949   1.083       .  S
C946        F947   1.357       .  S
C951        C952   1.411       .  A
C951        C956   1.418       .  A
C951        H958   1.083       .  S
C953        C954   1.405       .  A
C953        F960   1.358       .  S
C954        H959   1.083       .  S
C955        C956   1.412       .  A
C956        F957   1.356       .  S
