geometry optimzed in LAMMPS
_audit_creation_date              2020-12-01 
_audit_creation_method            'lammps2cif' 
_symmetry_space_group_name_H-M    'P1' 
_symmetry_Int_Tables_number       1 
_symmetry_cell_setting            triclinic 
loop_ 
_symmetry_equiv_pos_as_xyz 
  x,y,z 
_cell_length_a                    37.80695574 
_cell_length_b                    43.046629967837696 
_cell_length_c                    41.42595268008695 
_cell_angle_alpha                 87.8309804362667 
_cell_angle_beta                  90.4471063832334 
_cell_angle_gamma                 124.48558359771089 
loop_ 
_atom_site_label 
_atom_site_type_symbol 
_atom_site_fract_x 
_atom_site_fract_y 
_atom_site_fract_z 
_atom_site_charge 
N1          N  0.12357343  0.14980941  0.36721402    -0.03300
C2          C  0.15036070  0.18697955  0.35810590    -0.00700
C3          C  0.17805021  0.20735046  0.38257735    -0.23600
C4          C  0.16729970  0.18274448  0.40827625    -0.23800
C5          C  0.13343838  0.14769651  0.39895768    -0.00800
H6          H  0.20003016  0.23774318  0.38303942     0.13000
H7          H  0.18095897  0.19021953  0.43210600     0.13000
N8          N  0.02144304  0.41065687  0.37753452    -0.03300
C9          C  0.02061620  0.37933179  0.37186736    -0.00700
C10         C  0.99841463  0.35230196  0.39631766    -0.23600
C11         C  0.98703834  0.36795938  0.41865336    -0.23800
C12         C  0.00295566  0.40448398  0.40756260    -0.00800
H13         H  0.99650838  0.32635361  0.39998309     0.13000
H14         H  0.97393037  0.35574838  0.44252019     0.13000
C15         C  0.14935770  0.36387960  0.31751525     0.03300
C16         C  0.19375306  0.39113145  0.32029903    -0.12900
C17         C  0.22306500  0.38092794  0.32014647     0.00800
C18         C  0.20767983  0.34319305  0.31557837    -0.11400
C19         C  0.16342888  0.31515964  0.31335115     0.03300
C20         C  0.13475752  0.32615118  0.31302037    -0.10800
H21         H  0.20525248  0.42002620  0.32478024     0.08900
H22         H  0.23030130  0.33536456  0.31573437     0.06400
H23         H  0.10072143  0.30486497  0.31152480     0.06300
N24         N  0.42441537  0.50279830  0.37362003    -0.03300
C25         C  0.38631064  0.49794142  0.36683486    -0.00700
C26         C  0.37521489  0.51276863  0.39046211    -0.23600
C27         C  0.40656552  0.52616556  0.41309103    -0.23800
C28         C  0.43610666  0.51906555  0.40281031    -0.00800
H29         H  0.34490623  0.50972536  0.39305490     0.13000
H30         H  0.40540806  0.53627864  0.43633722     0.13000
Zr31       Zr  0.05860641  0.02584702  0.44982832     2.17500
O32         O  0.12501470  0.03679389  0.42882759    -0.51200
O33         O  0.00058389  0.02005713  0.41786185    -0.74400
O34         O  0.02726449  0.46717413  0.42097768    -0.81200
O35         O  0.11279924  0.12628430  0.45348288    -0.82900
O36         O  0.00926752  0.42356278  0.46164843    -0.78500
O37         O  0.09014713  0.08218885  0.41560178    -0.90200
O38         O  0.45155025  0.51224410  0.45592256    -0.76100
O39         O  0.99673628  0.47752871  0.48203573    -0.85600
O40         O  0.03284227  0.05636580  0.47870459    -0.85300
O41         O  0.08415263  0.99652094  0.48425548    -0.72100
O42         O  0.11729687  0.07113365  0.48175708    -0.84200
Zr43       Zr  0.06080115  0.02620805  0.07670931     2.26400
Zr44       Zr  0.02625095  0.45075167  0.01650264     2.06300
Zr45       Zr  0.09253976  0.10171525  0.00968668     2.10000
Zr46       Zr  0.47534277  0.50995914  0.01164235     1.78800
O47         O  0.16643176  0.15574071  0.01486408    -0.93000
O48         O  0.40807673  0.44797357  0.00883069    -0.40800
O49         O  0.03342038  0.05402381  0.04257009    -0.77400
O50         O  0.00028061  0.48020155  0.04644456    -0.96100
O51         O  0.08416179  0.99423460  0.04753695    -0.89400
O52         O  0.11950548  0.07475006  0.04418241    -0.92300
C53         C  0.46484983  0.51766305  0.42652210     1.01500
C54         C  0.10990500  0.11640894  0.42385785     1.14400
C55         C  0.01314433  0.43365323  0.43129759     1.05200
O56         O  0.95281997  0.39525897  0.02153641    -0.94400
O57         O  0.01590735  0.42352521  0.07133374    -0.90200
O58         O  0.03782224  0.46816170  0.10843306    -0.83300
C59         C  0.02185962  0.43390664  0.10078446     1.11800
O60         O  0.18074825  0.03385166  0.47467982    -0.96400
Zr61       Zr  0.14329586  0.04256758  0.01584510     1.88900
O62         O  0.12746395  0.05045273  0.10536598    -0.73000
O63         O  0.05698638  0.41414121  0.01477112    -0.52300
O64         O  0.16180404  0.99873716  0.03289543    -0.97000
O65         O  0.21121896  0.10116488  0.00037394    -0.54200
O66         O  0.17809627  0.06400321  0.06793921    -0.73600
C67         C  0.16649915  0.06453710  0.09692767     0.98800
O68         O  0.00669395  0.01037193  0.11675146    -0.62400
O69         O  0.06913500  0.14366144  0.00120231    -0.57200
O70         O  0.07211494  0.08071975  0.10326353    -0.93900
O71         O  0.08784829  0.12371230  0.06258597    -0.92300
O72         O  0.44749450  0.04885555  0.01283028    -0.92700
O73         O  0.42540681  0.49609369  0.05567146    -0.91400
C74         C  0.08038301  0.11266147  0.09275445     1.17600
H75         H  0.02468946  0.06945890  0.46436473     0.33600
H76         H  0.97731310  0.46132533  0.06057466     0.44400
H77         H  0.14161509  0.09511613  0.05661514     0.37900
H78         H  0.09375163  0.98421557  0.47153766     0.34400
H79         H  0.38838414  0.45268858  0.99733977     0.26200
H80         H  0.07525224  0.42134705  0.03407844     0.32200
H81         H  0.19240067  0.01494253  0.03887127     0.38100
H82         H  0.46450427  0.56976580  0.49645715     0.32500
H83         H  0.05723022  0.13879046  0.97918546     0.31400
H84         H  0.16730678  0.17700172  0.00389065     0.33100
H85         H  0.23330700  0.09980405  0.01200589     0.32000
H86         H  0.44279484  0.51544219  0.07166630     0.36000
H87         H  0.48792786  0.02374941  0.10320563     0.28800
H88         H  0.14079151  0.06109209  0.41629181     0.33000
H89         H  0.20349589  0.03286959  0.48560094     0.35900
H90         H  0.53469331  0.12673354  0.51321012     0.28500
H91         H  0.48396874  0.48717544  0.11261601     0.41300
H92         H  0.93556951  0.39505234  0.53863082     0.31400
H93         H  0.41346251  0.43526395  0.48659579     0.39000
H94         H  0.21053505  0.12093409  0.01115790     0.30900
H95         H  0.02377268  0.38354775  0.51247125     0.30900
H96         H  0.11715753  0.01660117  0.41381111     0.31200
Zr97       Zr  0.05420963  0.02672109  0.19898887     2.17500
O98         O  0.98243853  0.00456426  0.18069204    -0.51200
O99         O  0.11938224  0.05203124  0.16611000    -0.74400
O100        O  0.07029775  0.08053533  0.16530578    -0.81200
O101        O  0.01252882  0.42715897  0.21146857    -0.82900
O102        O  0.09045839  0.12464914  0.20282482    -0.78500
O103        O  0.03245295  0.47005776  0.16978557    -0.90200
O104        O  0.16938925  0.06950075  0.20474471    -0.76100
O105        O  0.11085293  0.07696065  0.22842471    -0.85600
O106        O  0.08527253  0.00055062  0.23054144    -0.85300
O107        O  0.02317546  0.05152929  0.23073325    -0.72100
O108        O  0.99535367  0.47657384  0.23495740    -0.84200
Zr109      Zr  0.05428957  0.02741078  0.32661200     2.26400
Zr110      Zr  0.08042979  0.10133432  0.26011222     2.06300
Zr111      Zr  0.02610029  0.45059584  0.26661396     2.10000
Zr112      Zr  0.14144955  0.05088435  0.25932896     1.78800
O113        O  0.95690923  0.39006011  0.27148113    -0.93000
O114        O  0.20437134  0.11497341  0.26467780    -0.40800
O115        O  0.08671749  0.00365968  0.29538511    -0.77400
O116        O  0.11177372  0.07559251  0.29198067    -0.96100
O117        O  0.02403781  0.05397851  0.29505790    -0.89400
O118        O  0.99518658  0.47444871  0.29897131    -0.92300
C119        C  0.15847516  0.06805117  0.17516718     1.01500
C120        C  0.01691685  0.43644291  0.18092287     1.14400
C121        C  0.08472511  0.11420670  0.17316193     1.05200
O122        O  0.14243987  0.16564314  0.25097071    -0.94400
O123        O  0.10321706  0.13035508  0.31367768    -0.90200
O124        O  0.08096108  0.08570395  0.35410550    -0.83300
C125        C  0.10025819  0.12025411  0.34402162     1.11800
O126        O  0.41707960  0.49262844  0.22332057    -0.96400
Zr127      Zr  0.46816782  0.50621252  0.26605534     1.88900
O128        O  0.99084522  0.01215637  0.35679936    -0.73000
O129        O  0.03623353  0.12592129  0.26209651    -0.52300
O130        O  0.44166860  0.04312795  0.26839350    -0.97000
O131        O  0.40138754  0.44329731  0.26968957    -0.54200
O132        O  0.43948266  0.50025381  0.31980277    -0.73600
C133        C  0.45240681  0.50442541  0.34905258     0.98800
O134        O  0.11154060  0.04230359  0.36296578    -0.62400
O135        O  0.06182286  0.41807189  0.26505972    -0.57200
O136        O  0.03682742  0.47003684  0.35933858    -0.93900
O137        O  0.02585256  0.42784615  0.32238535    -0.92300
O138        O  0.17402102  0.01729782  0.24719972    -0.92700
O139        O  0.18555243  0.05111431  0.30260993    -0.91400
C140        C  0.02904136  0.43800469  0.35190265     1.17600
H141        H  0.09646901  0.99017506  0.21692513     0.33600
H142        H  0.13504265  0.09478311  0.30463676     0.44400
H143        H  0.97401071  0.45500679  0.31382491     0.37900
H144        H  0.01099091  0.06167498  0.21695857     0.34400
H145        H  0.22709881  0.11614374  0.25183312     0.26200
H146        H  0.05361351  0.14944226  0.27403174     0.32200
H147        H  0.46243623  0.56767022  0.24575256     0.38100
H148        H  0.20367086  0.03725835  0.23989431     0.32500
H149        H  0.07173506  0.42114388  0.24239474     0.31400
H150        H  0.96150983  0.37224435  0.26109740     0.33100
H151        H  0.38060082  0.44649561  0.28079009     0.32000
H152        H  0.18815740  0.06930734  0.31801338     0.36000
H153        H  0.12175563  0.02693699  0.35581287     0.28800
H154        H  0.97105049  0.98135357  0.16871363     0.33000
H155        H  0.39339756  0.49239147  0.23367466     0.36500
H156        H  0.08849645  0.43399287  0.27732863     0.28500
H157        H  0.13546896  0.06853761  0.35703648     0.41300
H158        H  0.13034648  0.18056598  0.24630547     0.31400
H159        H  0.19757840  0.13090792  0.25203687     0.39000
H160        H  0.40672909  0.42867639  0.28555069     0.30900
H161        H  0.55055515  0.15015475  0.25405375     0.30900
H162        H  0.48738400  0.02829783  0.16332672     0.31200
N163        N  0.19974942  0.08556107  0.12018991    -0.03300
C164        C  0.24215048  0.11166810  0.11276818    -0.00700
C165        C  0.26427587  0.13177930  0.13923835    -0.23600
C166        C  0.23534679  0.11797791  0.16411442    -0.23800
C167        C  0.19585917  0.08965549  0.15234875    -0.00800
H168        H  0.29824698  0.15369183  0.14039088     0.13000
H169        H  0.24258744  0.12759846  0.18857162     0.13000
N170        N  0.08215225  0.13843031  0.11546893    -0.03300
C171        C  0.08136260  0.16863704  0.10577318    -0.00700
C172        C  0.09591618  0.19404170  0.13001268    -0.23600
C173        C  0.10354199  0.17826735  0.15614560    -0.23800
C174        C  0.09333957  0.14332428  0.14746360    -0.00800
H175        H  0.09518394  0.21881043  0.13025789     0.13000
H176        H  0.11097001  0.18936679  0.18010744     0.13000
C177        C  0.46882136  0.19774878  0.04144518     0.03300
C178        C  0.42394750  0.17177489  0.03898770    -0.12900
C179        C  0.39565530  0.18209058  0.04640722     0.00800
C180        C  0.41406670  0.22045184  0.05250226    -0.11400
C181        C  0.45845336  0.24827810  0.04939877     0.03300
C182        C  0.48558406  0.23621045  0.04445002    -0.10800
H183        H  0.41176189  0.14320302  0.03327691     0.08900
H184        H  0.39389731  0.22864578  0.06163383     0.06400
H185        H  0.01988439  0.25360035  0.04648170     0.06300
N186        N  0.00806320  0.40457419  0.12606941    -0.03300
C187        C  0.99217113  0.36770074  0.12047030    -0.00700
C188        C  0.97544365  0.34533178  0.14825474    -0.23600
C189        C  0.98186351  0.36842763  0.17232841    -0.23800
C190        C  0.00234118  0.40474469  0.15889539    -0.00800
H191        H  0.96206459  0.31549396  0.15096080     0.13000
H192        H  0.97359074  0.35957338  0.19751966     0.13000
C193        C  0.46089604  0.33501116  0.06922864    -0.09000
C194        C  0.99751850  0.35160066  0.09138178     0.07200
C195        C  0.02489145  0.33922733  0.09344103    -0.02800
C196        C  0.01407663  0.30648608  0.07822705    -0.07200
C197        C  0.47599734  0.28832584  0.05759532     0.06300
C198        C  0.45288093  0.30473067  0.05118635    -0.02200
Br199      Br  0.41027670  0.28714649  0.01824474    -0.01900
H200        H  0.43899711  0.34363291  0.06776774     0.10200
H201        H  0.03246653  0.29490389  0.08395480     0.08300
Br202      Br  0.07416183  0.36358153  0.12059821    -0.02400
C203        C  0.48093455  0.15517234  0.07444630    -0.09000
C204        C  0.49639176  0.18393747  0.05019156     0.07200
C205        C  0.03804878  0.19983300  0.03875634    -0.02800
C206        C  0.06602946  0.19368760  0.05589815    -0.07200
C207        C  0.05089787  0.16705061  0.08186174     0.06300
C208        C  0.50809281  0.14753450  0.09030513    -0.02200
Br209      Br  0.48378712  0.11004927  0.12513566    -0.01900
H210        H  0.44817532  0.14043999  0.08316507     0.10200
H211        H  0.09993434  0.21069329  0.04969597     0.08300
Br212      Br  0.06085648  0.23442817  0.00194642    -0.02400
C213        C  0.32119451  0.16722215  0.04670215    -0.09000
C214        C  0.34765777  0.15399191  0.05165921     0.07200
C215        C  0.32817142  0.11754450  0.06717776    -0.02800
C216        C  0.28712086  0.09940079  0.08136385    -0.07200
C217        C  0.26593173  0.11743240  0.08249368     0.06300
C218        C  0.28203240  0.15055754  0.06337882    -0.02200
Br219      Br  0.25591627  0.17787618  0.06443206    -0.01900
H220        H  0.33327852  0.19343571  0.03308659     0.10200
H221        H  0.27472282  0.07371891  0.09598346     0.08300
Br222      Br  0.35552093  0.09178213  0.07545396    -0.02400
C223        C  0.29104657  0.44538708  0.31274393    -0.09000
C224        C  0.26899192  0.40916625  0.32792630     0.07200
C225        C  0.29017526  0.40183943  0.35231200    -0.02800
C226        C  0.33171893  0.43045512  0.36118645    -0.07200
C227        C  0.35206083  0.46713475  0.34775959     0.06300
C228        C  0.33191961  0.47435590  0.32284390    -0.02200
Br229      Br  0.35813983  0.52401330  0.30362053    -0.01900
H230        H  0.27559835  0.45166390  0.29399111     0.10200
H231        H  0.34634023  0.42507272  0.38128022     0.08300
Br232      Br  0.26229797  0.35606298  0.37879602    -0.02400
C233        C  0.12645630  0.39301390  0.35515704    -0.09000
C234        C  0.11833647  0.37311913  0.32685432     0.07200
C235        C  0.07890823  0.35895473  0.31110733    -0.02800
C236        C  0.04752279  0.36229213  0.32521092    -0.07200
C237        C  0.05545478  0.38082898  0.35423414     0.06300
C238        C  0.09564585  0.39681762  0.36885121    -0.02200
Br239      Br  0.10857284  0.42034779  0.40977250    -0.01900
H240        H  0.15597175  0.40364563  0.36809362     0.10200
H241        H  0.01672063  0.34997800  0.31376300     0.08300
Br242      Br  0.06694552  0.33625003  0.26991918    -0.02400
C243        C  0.11000005  0.21386251  0.34551734    -0.09000
C244        C  0.13983138  0.20702616  0.33464683     0.07200
C245        C  0.16976344  0.23110960  0.31048998    -0.02800
C246        C  0.17244045  0.26374148  0.30015632    -0.07200
C247        C  0.14814856  0.27456443  0.31573168     0.06300
C248        C  0.11537983  0.24822020  0.33799665    -0.02200
Br249      Br  0.08386027  0.25963362  0.36563419    -0.01900
H250        H  0.08750579  0.19570825  0.36469790     0.10200
H251        H  0.19710273  0.28283146  0.28256974     0.08300
Br252      Br  0.21235360  0.22381610  0.29548985    -0.02400
N253        N  0.12184187  0.14899860  0.86645982    -0.03300
C254        C  0.14906545  0.18612375  0.85720547    -0.00700
C255        C  0.17771731  0.20611270  0.88129880    -0.23600
C256        C  0.16707934  0.18145583  0.90693561    -0.23800
C257        C  0.13238902  0.14667381  0.89797222    -0.00800
H258        H  0.20030674  0.23643942  0.88168644     0.13000
H259        H  0.18145666  0.18877347  0.93054481     0.13000
N260        N  0.02362240  0.41271151  0.87705561    -0.03300
C261        C  0.02326901  0.38178458  0.87065602    -0.00700
C262        C  0.00282249  0.35482256  0.89539500    -0.23600
C263        C  0.99248529  0.37027238  0.91869940    -0.23800
C264        C  0.00708775  0.40655523  0.90779111    -0.00800
H265        H  0.00173440  0.32920571  0.89847932     0.13000
H266        H  0.98098071  0.35812505  0.94284143     0.13000
C267        C  0.14956087  0.36437037  0.81512328     0.03300
C268        C  0.19407549  0.39160475  0.81724909    -0.12900
C269        C  0.22348340  0.38147138  0.81667768     0.00800
C270        C  0.20765514  0.34357825  0.81188567    -0.11400
C271        C  0.16316599  0.31544215  0.81128833     0.03300
C272        C  0.13458550  0.32648204  0.81132949    -0.10800
H273        H  0.20553318  0.42046585  0.82177044     0.08900
H274        H  0.23007446  0.33559732  0.81093208     0.06400
H275        H  0.10041705  0.30516637  0.81086496     0.06300
N276        N  0.42413886  0.50148035  0.87450949    -0.03300
C277        C  0.38589323  0.49671185  0.86809024    -0.00700
C278        C  0.37443874  0.51025870  0.89260411    -0.23600
C279        C  0.40548966  0.52265348  0.91534031    -0.23800
C280        C  0.43532189  0.51631202  0.90429484    -0.00800
H281        H  0.34416124  0.50719059  0.89548159     0.13000
H282        H  0.40414553  0.53189794  0.93897300     0.13000
Zr283      Zr  0.05770168  0.02507910  0.94964029     2.17500
O284        O  0.12189238  0.03367112  0.92654765    -0.51200
O285        O  0.99935904  0.01999097  0.91855103    -0.74400
O286        O  0.03202988  0.46933432  0.92133385    -0.81200
O287        O  0.11275820  0.12572801  0.95274811    -0.82900
O288        O  0.01340534  0.42539478  0.96192466    -0.78500
O289        O  0.08883431  0.08120379  0.91507258    -0.90200
O290        O  0.45321988  0.51148301  0.95707204    -0.76100
O291        O  0.99882254  0.47744187  0.98201077    -0.85600
O292        O  0.03363220  0.05653721  0.97909964    -0.85300
O293        O  0.08429192  0.99645051  0.98394845    -0.72100
O294        O  0.11732693  0.07094471  0.98067680    -0.84200
Zr295      Zr  0.05929387  0.02551534  0.57690164     2.26400
Zr296      Zr  0.02184429  0.44858115  0.51642541     2.06300
Zr297      Zr  0.09094328  0.10124401  0.50991859     2.10000
Zr298      Zr  0.47319644  0.50889526  0.51017664     1.78800
O299        O  0.16388931  0.15644722  0.51582983    -0.93000
O300        O  0.40769940  0.44612342  0.50481408    -0.40800
O301        O  0.03193722  0.05321937  0.54258486    -0.77400
O302        O  0.99915191  0.48079910  0.54638033    -0.96100
O303        O  0.08285828  0.99342242  0.54821525    -0.89400
O304        O  0.11781810  0.07412009  0.54441237    -0.92300
C305        C  0.46509528  0.51563082  0.92738705     1.01500
C306        C  0.10903773  0.11554829  0.92312067     1.14400
C307        C  0.01757861  0.43569542  0.93160363     1.05200
O308        O  0.94851992  0.39241556  0.51915038    -0.94400
O309        O  0.01075969  0.42202593  0.57192502    -0.90200
O310        O  0.03673127  0.46743457  0.60874655    -0.83300
C311        C  0.01835223  0.43281186  0.60133225     1.11800
O312        O  0.18387493  0.03990574  0.97175897    -0.96400
Zr313      Zr  0.14233292  0.04185560  0.51702496     1.88900
O314        O  0.12629664  0.05014314  0.60572867    -0.73000
O315        O  0.04965355  0.40971363  0.51315519    -0.52300
O316        O  0.15961993  0.99830306  0.53796523    -0.97000
O317        O  0.21120919  0.09894871  0.50106083    -0.54200
O318        O  0.17775064  0.06539173  0.56846920    -0.73600
C319        C  0.16572141  0.06545686  0.59738178     0.98800
O320        O  0.00284853  0.01015310  0.61454335    -0.62400
O321        O  0.06620466  0.14211391  0.49984100    -0.57200
O322        O  0.07220213  0.08051998  0.60351982    -0.93900
O323        O  0.08403182  0.12208891  0.56259895    -0.92300
O324        O  0.44995830  0.04852333  0.51647012    -0.92700
O325        O  0.42209583  0.49257163  0.55392722    -0.91400
C326        C  0.07857006  0.11174813  0.59289144     1.17600
H327        H  0.02549022  0.06974386  0.96491801     0.33600
H328        H  0.97561902  0.46279411  0.56056677     0.44400
H329        H  0.13967066  0.09457641  0.55690002     0.37900
H330        H  0.09378373  0.98406017  0.97123489     0.34400
H331        H  0.38640609  0.45070414  0.49633480     0.26200
H332        H  0.06202923  0.41099924  0.53460904     0.32200
H333        H  0.18985301  0.01456224  0.54482265     0.38100
H334        H  0.46271047  0.56792402  0.99398200     0.32500
H335        H  0.05214751  0.13502858  0.47858261     0.31400
H336        H  0.16038942  0.17584995  0.52409375     0.33100
H337        H  0.23209818  0.09906050  0.51568281     0.32000
H338        H  0.43842062  0.51230183  0.56984372     0.36000
H339        H  0.48605790  0.01705554  0.60580049     0.28800
H340        H  0.13839136  0.05843551  0.91475334     0.33000
H341        H  0.20794661  0.04030869  0.98184902     0.35900
H342        H  0.53506382  0.12777019  0.01435468     0.28500
H343        H  0.47839266  0.48602239  0.60979207     0.41300
H344        H  0.93914987  0.39535081  0.00109347     0.31400
H345        H  0.41380964  0.43432281  0.99332259     0.39000
H346        H  0.20945612  0.11973183  0.50820646     0.30900
H347        H  0.03255313  0.38780405  0.01971965     0.30900
H348        H  0.11267038  0.01390316  0.91075877     0.31200
Zr349      Zr  0.05131649  0.02532670  0.69864389     2.17500
O350        O  0.98021870  0.00414484  0.67928830    -0.51200
O351        O  0.11746768  0.05346413  0.66608322    -0.74400
O352        O  0.06836555  0.07957801  0.66519555    -0.81200
O353        O  0.01079568  0.42763682  0.71216243    -0.82900
O354        O  0.08898882  0.12371839  0.70275841    -0.78500
O355        O  0.03078785  0.47015914  0.67019654    -0.90200
O356        O  0.16758057  0.06940245  0.70439279    -0.76100
O357        O  0.10765658  0.07540966  0.72814319    -0.85600
O358        O  0.08299086  0.99959261  0.72997444    -0.85300
O359        O  0.01985468  0.04959604  0.73055243    -0.72100
O360        O  0.99590478  0.47823764  0.73440146    -0.84200
Zr361      Zr  0.05281077  0.02645854  0.82653034     2.26400
Zr362      Zr  0.07720630  0.09961774  0.75980472     2.06300
Zr363      Zr  0.02598793  0.45225620  0.76681853     2.10000
Zr364      Zr  0.13935529  0.05015789  0.75865794     1.78800
O365        O  0.95829722  0.39060977  0.77246775    -0.93000
O366        O  0.20370254  0.11437088  0.76023784    -0.40800
O367        O  0.08505231  0.00290123  0.79494784    -0.77400
O368        O  0.10943365  0.07457574  0.79139473    -0.96100
O369        O  0.02169746  0.05231582  0.79522476    -0.89400
O370        O  0.99417753  0.47586333  0.79848407    -0.92300
C371        C  0.15659031  0.06914456  0.67503627     1.01500
C372        C  0.01478529  0.43655011  0.68157203     1.14400
C373        C  0.08349415  0.11337904  0.67309405     1.05200
O374        O  0.13744137  0.16418823  0.74827064    -0.94400
O375        O  0.10125452  0.12941998  0.81297398    -0.90200
O376        O  0.07918395  0.08490968  0.85355995    -0.83300
C377        C  0.09840192  0.11941626  0.84334376     1.11800
O378        O  0.41258597  0.48568402  0.72526572    -0.96400
Zr379      Zr  0.46568948  0.50296457  0.76713892     1.88900
O380        O  0.99074954  0.01319153  0.85752661    -0.73000
O381        O  0.02952129  0.12045858  0.76340572    -0.52300
O382        O  0.44189198  0.04434353  0.76166739    -0.97000
O383        O  0.40219647  0.43836482  0.77175019    -0.54200
O384        O  0.43777680  0.49675541  0.82098560    -0.73600
C385        C  0.45209975  0.50328260  0.84980887     0.98800
O386        O  0.11261475  0.04331767  0.86073381    -0.62400
O387        O  0.06332192  0.42132244  0.76348523    -0.57200
O388        O  0.03490661  0.47076990  0.85939722    -0.93900
O389        O  0.02723671  0.43009267  0.82220282    -0.92300
O390        O  0.16618823  0.01162197  0.74811954    -0.92700
O391        O  0.18830785  0.05713242  0.80091393    -0.91400
C392        C  0.02943172  0.43967938  0.85174729     1.17600
H393        H  0.09405453  0.98924526  0.71620970     0.33600
H394        H  0.13268697  0.09399316  0.80378312     0.44400
H395        H  0.97269438  0.45639508  0.81314798     0.37900
H396        H  0.00747519  0.05961999  0.71684976     0.34400
H397        H  0.19734785  0.12955397  0.74596615     0.26200
H398        H  0.03133427  0.12748063  0.78614598     0.32200
H399        H  0.44955597  0.55669485  0.78746405     0.38100
H400        H  0.19702710  0.03000660  0.74277266     0.32500
H401        H  0.07412709  0.42597845  0.74092606     0.31400
H402        H  0.96636269  0.37252377  0.77037107     0.33100
H403        H  0.40131748  0.42978815  0.79442385     0.32000
H404        H  0.17477202  0.03150687  0.81092334     0.36000
H405        H  0.12288257  0.02813950  0.85317726     0.28800
H406        H  0.96921424  0.98118605  0.66702721     0.33000
H407        H  0.38746931  0.48246295  0.73626162     0.36500
H408        H  0.08940356  0.43674687  0.77647561     0.28500
H409        H  0.13595446  0.06956963  0.85427456     0.41300
H410        H  0.12504942  0.17919692  0.74845191     0.31400
H411        H  0.20415371  0.12291248  0.78218306     0.39000
H412        H  0.40949293  0.42371878  0.75893918     0.30900
H413        H  0.55626796  0.15359885  0.75754197     0.30900
H414        H  0.48441749  0.02377525  0.66373518     0.31200
N415        N  0.19868661  0.08724005  0.62067109    -0.03300
C416        C  0.24130351  0.11330047  0.61374802    -0.00700
C417        C  0.26266404  0.13393602  0.64020879    -0.23600
C418        C  0.23303190  0.12057057  0.66454495    -0.23800
C419        C  0.19397955  0.09185886  0.65248175    -0.00800
H420        H  0.29660778  0.15580908  0.64176113     0.13000
H421        H  0.23960569  0.13032323  0.68897657     0.13000
N422        N  0.08120494  0.13784112  0.61563439    -0.03300
C423        C  0.08146454  0.16858893  0.60602181    -0.00700
C424        C  0.09734625  0.19427285  0.63009284    -0.23600
C425        C  0.10501169  0.17824248  0.65601282    -0.23800
C426        C  0.09325086  0.14280515  0.64740327    -0.00800
H427        H  0.09775074  0.21960671  0.63039030     0.13000
H428        H  0.11347425  0.18957573  0.67987077     0.13000
C429        C  0.46828711  0.19808854  0.54139603     0.03300
C430        C  0.42334942  0.17237722  0.53919109    -0.12900
C431        C  0.39536292  0.18316226  0.54610504     0.00800
C432        C  0.41410235  0.22187334  0.55093223    -0.11400
C433        C  0.45869892  0.24933845  0.54828570     0.03300
C434        C  0.48553129  0.23671134  0.54402732    -0.10800
H435        H  0.41082837  0.14355682  0.53415970     0.08900
H436        H  0.39407767  0.23057664  0.55924889     0.06400
H437        H  0.01810753  0.25472200  0.54843509     0.06300
N438        N  0.00394427  0.40366839  0.62689030    -0.03300
C439        C  0.98707153  0.36659904  0.62153852    -0.00700
C440        C  0.97098082  0.34464223  0.64958217    -0.23600
C441        C  0.97846415  0.36821275  0.67354658    -0.23800
C442        C  0.99914435  0.40442083  0.65978882    -0.00800
H443        H  0.95738271  0.31477661  0.65250337     0.13000
H444        H  0.97081053  0.35974495  0.69885950     0.13000
C445        C  0.46226077  0.33664571  0.56857455    -0.09000
C446        C  0.99165348  0.35014619  0.59245155     0.07200
C447        C  0.02060210  0.33949313  0.59358176    -0.02800
C448        C  0.01059552  0.30690653  0.57857167    -0.07200
C449        C  0.47660862  0.28945820  0.55675782     0.06300
C450        C  0.45421178  0.30655569  0.55021729    -0.02200
Br451      Br  0.41275019  0.29053479  0.51657389    -0.01900
H452        H  0.44079785  0.34572509  0.56693141     0.10200
H453        H  0.03063765  0.29685461  0.58364105     0.08300
Br454      Br  0.07063956  0.36539265  0.61990820    -0.02400
C455        C  0.47985329  0.15630296  0.57591844    -0.09000
C456        C  0.49520475  0.18368569  0.55051304     0.07200
C457        C  0.03968954  0.20314893  0.54064247    -0.02800
C458        C  0.06750297  0.19654634  0.55746756    -0.07200
C459        C  0.05177725  0.16803609  0.58194013     0.06300
C460        C  0.50631039  0.14773768  0.59152056    -0.02200
Br461      Br  0.48241352  0.11305872  0.62832505    -0.01900
H462        H  0.44790576  0.14358549  0.58573065     0.10200
H463        H  0.10165503  0.21456299  0.55224265     0.08300
Br464      Br  0.06316107  0.24006219  0.50545639    -0.02400
C465        C  0.32057935  0.16790463  0.54729106    -0.09000
C466        C  0.34749922  0.15516271  0.55253159     0.07200
C467        C  0.32876290  0.11942224  0.56930154    -0.02800
C468        C  0.28807183  0.10158429  0.58405886    -0.07200
C469        C  0.26600531  0.11887851  0.58405539     0.06300
C470        C  0.28151349  0.15134156  0.56416976    -0.02200
Br471      Br  0.25435381  0.17782769  0.56434502    -0.01900
H472        H  0.33206261  0.19356529  0.53296983     0.10200
H473        H  0.27635932  0.07661789  0.59954035     0.08300
Br474      Br  0.35644896  0.09402556  0.57813156    -0.02400
C475        C  0.29062699  0.44741635  0.81294359    -0.09000
C476        C  0.26957861  0.40978915  0.82501206     0.07200
C477        C  0.29145644  0.40130328  0.84788200    -0.02800
C478        C  0.33260130  0.42977340  0.85786333    -0.07200
C479        C  0.35187076  0.46745234  0.84752113     0.06300
C480        C  0.33062302  0.47617458  0.82474099    -0.02200
Br481      Br  0.35312723  0.52745650  0.81168578    -0.01900
H482        H  0.27477193  0.45495679  0.79566815     0.10200
H483        H  0.34760827  0.42309009  0.87671117     0.08300
Br484      Br  0.26504926  0.35366643  0.87147354    -0.02400
C485        C  0.12799102  0.39436809  0.85286853    -0.09000
C486        C  0.11903331  0.37400977  0.82476620     0.07200
C487        C  0.07978013  0.36066196  0.80904478    -0.02800
C488        C  0.04912681  0.36492511  0.82320062    -0.07200
C489        C  0.05788012  0.38394049  0.85204762     0.06300
C490        C  0.09837642  0.39993175  0.86614019    -0.02200
Br491      Br  0.11378835  0.42692736  0.90536956    -0.01900
H492        H  0.15751071  0.40460053  0.86567858     0.10200
H493        H  0.01822073  0.35287923  0.81199318     0.08300
Br494      Br  0.06708220  0.33778458  0.76791930    -0.02400
C495        C  0.11068626  0.21548548  0.84707656    -0.09000
C496        C  0.13839495  0.20690015  0.83464925     0.07200
C497        C  0.16693400  0.22989572  0.80933340    -0.02800
C498        C  0.16989378  0.26259863  0.79880766    -0.07200
C499        C  0.14760733  0.27483888  0.81517170     0.06300
C500        C  0.11658918  0.25001095  0.83912371    -0.02200
Br501      Br  0.08825224  0.26386343  0.86771593    -0.01900
H502        H  0.08958060  0.19848312  0.86729374     0.10200
H503        H  0.19332671  0.28065499  0.78013407     0.08300
Br504      Br  0.20787771  0.22150480  0.79262185    -0.02400
N505        N  0.12340497  0.64839564  0.36709474    -0.03300
C506        C  0.14996078  0.68563894  0.35799667    -0.00700
C507        C  0.17842593  0.70583230  0.38211844    -0.23600
C508        C  0.16843704  0.68111301  0.40758297    -0.23800
C509        C  0.13425665  0.64613128  0.39850001    -0.00800
H510        H  0.20048173  0.73621126  0.38261573     0.13000
H511        H  0.18273951  0.68849154  0.43121216     0.13000
N512        N  0.02408989  0.91293126  0.37650268    -0.03300
C513        C  0.02312938  0.88159889  0.37059088    -0.00700
C514        C  0.00111813  0.85455109  0.39504085    -0.23600
C515        C  0.99010838  0.87021405  0.41762144    -0.23800
C516        C  0.00600933  0.90675376  0.40663929    -0.00800
H517        H  0.99930880  0.82863856  0.39857625     0.13000
H518        H  0.97739607  0.85801230  0.44156222     0.13000
C519        C  0.15023385  0.86341052  0.31707843     0.03300
C520        C  0.19475643  0.89052846  0.31943800    -0.12900
C521        C  0.22415980  0.88039728  0.31793558     0.00800
C522        C  0.20830202  0.84259992  0.31286140    -0.11400
C523        C  0.16383590  0.81456557  0.31222645     0.03300
C524        C  0.13533548  0.82566533  0.31261094    -0.10800
H525        H  0.20628487  0.91930412  0.32440781     0.08900
H526        H  0.23072273  0.83464768  0.31155325     0.06400
H527        H  0.10121101  0.80439235  0.31185578     0.06300
N528        N  0.42381315  0.99974948  0.37456763    -0.03300
C529        C  0.38615780  0.99559113  0.36737703    -0.00700
C530        C  0.37420816  0.00924968  0.39146226    -0.23600
C531        C  0.40450235  0.02121065  0.41475232    -0.23800
C532        C  0.43424579  0.01443345  0.40437599    -0.00800
H533        H  0.34406510  0.00656151  0.39365748     0.13000
H534        H  0.40268494  0.03048432  0.43824498     0.13000
Zr535      Zr  0.05739113  0.52421101  0.45010863     2.17500
O536        O  0.11758937  0.52662524  0.42608542    -0.51200
O537        O  0.00027374  0.52089444  0.41880048    -0.74400
O538        O  0.03252451  0.96982175  0.42030101    -0.81200
O539        O  0.11356422  0.62521502  0.45309040    -0.82900
O540        O  0.01114588  0.92513762  0.46069603    -0.78500
O541        O  0.09176188  0.58067598  0.41568405    -0.90200
O542        O  0.45069357  0.00912115  0.45736230    -0.76100
O543        O  0.99842614  0.97753321  0.48107861    -0.85600
O544        O  0.03494480  0.55734747  0.47893494    -0.85300
O545        O  0.08257474  0.49482486  0.48491585    -0.72100
O546        O  0.11720927  0.56957907  0.48140572    -0.84200
Zr547      Zr  0.05966069  0.52655736  0.07749281     2.26400
Zr548      Zr  0.02444685  0.94943122  0.01593020     2.06300
Zr549      Zr  0.08994777  0.60196497  0.01037667     2.10000
Zr550      Zr  0.47223963  0.00756290  0.01113340     1.78800
O551        O  0.16153895  0.65881729  0.01687712    -0.93000
O552        O  0.40582676  0.94515019  0.00643529    -0.40800
O553        O  0.03141476  0.55359400  0.04320939    -0.77400
O554        O  0.00004978  0.98001610  0.04632984    -0.96100
O555        O  0.08494593  0.49600768  0.04855924    -0.89400
O556        O  0.11784399  0.57597721  0.04509412    -0.92300
C557        C  0.46306941  0.01317468  0.42787046     1.01500
C558        C  0.11094027  0.61499607  0.42360317     1.14400
C559        C  0.01658564  0.93586343  0.43043504     1.05200
O560        O  0.95162937  0.89274776  0.02002508    -0.94400
O561        O  0.01445884  0.92313839  0.07132889    -0.90200
O562        O  0.03997020  0.96860898  0.10801180    -0.83300
C563        C  0.02228339  0.93407614  0.10066609     1.11800
O564        O  0.18325313  0.53836770  0.47333465    -0.96400
Zr565      Zr  0.14379514  0.54527723  0.01724510     1.88900
O566        O  0.12675197  0.55189302  0.10632159    -0.73000
O567        O  0.05364846  0.91153937  0.01462435    -0.52300
O568        O  0.16631645  0.50507243  0.03687717    -0.97000
O569        O  0.21005360  0.60512833  0.00157349    -0.54200
O570        O  0.17850007  0.56759605  0.06916397    -0.73600
C571        C  0.16622250  0.56717079  0.09812376     0.98800
O572        O  0.00211516  0.51110814  0.11409043    -0.62400
O573        O  0.06316236  0.64134204  0.00049918    -0.57200
O574        O  0.07100625  0.58061724  0.10445564    -0.93900
O575        O  0.08475942  0.62285927  0.06357242    -0.92300
O576        O  0.45275827  0.55281742  0.01459930    -0.92700
O577        O  0.42303583  0.99493585  0.05538965    -0.91400
C578        C  0.07860922  0.61227140  0.09383697     1.17600
H579        H  0.02743008  0.57085673  0.46451805     0.33600
H580        H  0.97703611  0.96168755  0.06076557     0.44400
H581        H  0.13948100  0.59649835  0.05765626     0.37900
H582        H  0.09150210  0.48176000  0.47255572     0.34400
H583        H  0.38466783  0.95010083  0.99836993     0.26200
H584        H  0.07354667  0.91995545  0.03300001     0.32200
H585        H  0.19772842  0.52248623  0.03959951     0.38100
H586        H  0.46161898  0.06536507  0.49683835     0.32500
H587        H  0.05266557  0.63666633  0.97805558     0.31400
H588        H  0.15689651  0.67912306  0.01879183     0.33100
H589        H  0.23295303  0.60440488  0.01253711     0.32000
H590        H  0.41736581  0.97196278  0.06697954     0.36000
H591        H  0.49810296  0.52888785  0.10986110     0.28800
H592        H  0.13677378  0.55188073  0.41549088     0.33000
H593        H  0.17021092  0.51126542  0.47021854     0.35900
H594        H  0.53563719  0.62880061  0.51581539     0.28500
H595        H  0.47849064  0.98387830  0.11073647     0.41300
H596        H  0.95104689  0.87386364  0.51075310     0.31400
H597        H  0.41021852  0.93675441  0.48165696     0.39000
H598        H  0.20859218  0.62411237  0.01307094     0.30900
H599        H  0.03201385  0.88733638  0.52284789     0.30900
H600        H  0.10635594  0.50775816  0.40922715     0.31200
Zr601      Zr  0.05109052  0.52475859  0.19949102     2.17500
O602        O  0.97970449  0.50188345  0.17974318    -0.51200
O603        O  0.11710052  0.55286401  0.16688612    -0.74400
O604        O  0.06722966  0.57915074  0.16624778    -0.81200
O605        O  0.01733799  0.92968187  0.21133229    -0.82900
O606        O  0.08882899  0.62344582  0.20378368    -0.78500
O607        O  0.03393786  0.97147522  0.16936666    -0.90200
O608        O  0.16699930  0.56898419  0.20539324    -0.76100
O609        O  0.10800238  0.57420449  0.22923269    -0.85600
O610        O  0.08121778  0.49734934  0.23063588    -0.85300
O611        O  0.02009198  0.54942457  0.23136280    -0.72100
O612        O  0.99851054  0.97827719  0.23412881    -0.84200
Zr613      Zr  0.05286183  0.52550877  0.32720600     2.26400
Zr614      Zr  0.07788662  0.59900649  0.26061247     2.06300
Zr615      Zr  0.03032648  0.95349675  0.26611544     2.10000
Zr616      Zr  0.13804002  0.54702791  0.25944612     1.78800
O617        O  0.96391665  0.89062102  0.26954027    -0.93000
O618        O  0.20661021  0.60734170  0.26519249    -0.40800
O619        O  0.08340357  0.50032842  0.29570212    -0.77400
O620        O  0.10951113  0.57307329  0.29168785    -0.96100
O621        O  0.02222134  0.55206637  0.29619709    -0.89400
O622        O  0.99764186  0.97625027  0.29797961    -0.92300
C623        C  0.15621745  0.56901586  0.17598387     1.01500
C624        C  0.02009538  0.93829916  0.18077850     1.14400
C625        C  0.08285725  0.61309698  0.17412912     1.05200
O626        O  0.13888117  0.66331318  0.24952257    -0.94400
O627        O  0.10203242  0.62865673  0.31377031    -0.90200
O628        O  0.08126047  0.58427614  0.35427073    -0.83300
C629        C  0.09992280  0.61873695  0.34406434     1.11800
O630        O  0.41430252  0.98747743  0.22490768    -0.96400
Zr631      Zr  0.46585086  0.00134538  0.26730380     1.88900
O632        O  0.99021068  0.51216328  0.35782203    -0.73000
O633        O  0.03319400  0.62296624  0.26381667    -0.52300
O634        O  0.45008914  0.55231889  0.26608974    -0.97000
O635        O  0.40118154  0.93711680  0.26881351    -0.54200
O636        O  0.43789011  0.99419898  0.32141587    -0.73600
C637        C  0.45204912  0.00127353  0.35028449     0.98800
O638        O  0.11373082  0.54299046  0.36062297    -0.62400
O639        O  0.07142566  0.92581158  0.26564340    -0.57200
O640        O  0.03711496  0.97149949  0.35848030    -0.93900
O641        O  0.02983215  0.93070165  0.32156752    -0.92300
O642        O  0.16159271  0.50622556  0.24795845    -0.92700
O643        O  0.18201070  0.54903802  0.30368001    -0.91400
C644        C  0.03134129  0.94023453  0.35102919     1.17600
H645        H  0.09188957  0.48673787  0.21679048     0.33600
H646        H  0.13327374  0.59260276  0.30374595     0.44400
H647        H  0.97639547  0.95662123  0.31266775     0.37900
H648        H  0.00785046  0.55953941  0.21761000     0.34400
H649        H  0.22670403  0.60660697  0.25056519     0.26200
H650        H  0.03260164  0.62739854  0.28703016     0.32200
H651        H  0.45317440  0.05691341  0.28858234     0.38100
H652        H  0.18489616  0.52063702  0.23157847     0.32500
H653        H  0.07772482  0.92544679  0.24257129     0.31400
H654        H  0.97119034  0.87423920  0.25973605     0.33100
H655        H  0.38944143  0.93227003  0.29109984     0.32000
H656        H  0.16720406  0.52253814  0.31189218     0.36000
H657        H  0.12248351  0.52637655  0.35402355     0.28800
H658        H  0.97002014  0.47963634  0.16681952     0.33000
H659        H  0.38909214  0.98413796  0.23585842     0.36500
H660        H  0.09952567  0.94519335  0.27474117     0.28500
H661        H  0.13770547  0.56848010  0.35294059     0.41300
H662        H  0.16208093  0.66066296  0.24274472     0.31400
H663        H  0.20250975  0.62612780  0.25473668     0.39000
H664        H  0.41176507  0.92079973  0.26724882     0.30900
H665        H  0.56765748  0.65988420  0.25957959     0.30900
H666        H  0.48635543  0.52711545  0.16563829     0.31200
N667        N  0.19895742  0.58837195  0.12173333    -0.03300
C668        C  0.24157558  0.61489062  0.11504159    -0.00700
C669        C  0.26224077  0.63559954  0.14165064    -0.23600
C670        C  0.23227154  0.62166850  0.16582740    -0.23800
C671        C  0.19366904  0.59258866  0.15355812    -0.00800
H672        H  0.29608228  0.65761737  0.14354378     0.13000
H673        H  0.23837266  0.63120770  0.19032020     0.13000
N674        N  0.08210614  0.63866480  0.11657089    -0.03300
C675        C  0.08461544  0.67040832  0.10668679    -0.00700
C676        C  0.10164120  0.69613520  0.13074124    -0.23600
C677        C  0.10720990  0.67896251  0.15697393    -0.23800
C678        C  0.09344041  0.64294207  0.14848532    -0.00800
H679        H  0.10392221  0.72235645  0.13085679     0.13000
H680        H  0.11600503  0.69025349  0.18083022     0.13000
C681        C  0.47049391  0.69684896  0.04459654     0.03300
C682        C  0.42541411  0.67060850  0.04331905    -0.12900
C683        C  0.39735509  0.68120035  0.05078775     0.00800
C684        C  0.41589724  0.71959217  0.05649191    -0.11400
C685        C  0.46006740  0.74738597  0.05257454     0.03300
C686        C  0.48719624  0.73536984  0.04729264    -0.10800
H687        H  0.41286666  0.64173972  0.03833778     0.08900
H688        H  0.39586713  0.72784784  0.06581375     0.06400
H689        H  0.02105548  0.75653092  0.04592165     0.06300
N690        N  0.00897706  0.90520965  0.12625872    -0.03300
C691        C  0.99252773  0.86821990  0.12103543    -0.00700
C692        C  0.97751321  0.84645798  0.14922458    -0.23600
C693        C  0.98537955  0.87014415  0.17316674    -0.23800
C694        C  0.00511612  0.90617884  0.15920911    -0.00800
H695        H  0.96410793  0.81663456  0.15218656     0.13000
H696        H  0.97832403  0.86183762  0.19854273     0.13000
C697        C  0.46357742  0.83535026  0.07010286    -0.09000
C698        C  0.99577198  0.85163911  0.09155293     0.07200
C699        C  0.02500212  0.84134389  0.09129497    -0.02800
C700        C  0.01432142  0.80863727  0.07620759    -0.07200
C701        C  0.47755494  0.78756713  0.06007493     0.06300
C702        C  0.45442710  0.80394645  0.05328159    -0.02200
Br703      Br  0.40926968  0.78439376  0.02223772    -0.01900
H704        H  0.44185985  0.84415641  0.06837984     0.10200
H705        H  0.03485010  0.79892888  0.08036495     0.08300
Br706      Br  0.07717464  0.86851642  0.11515818    -0.02400
C707        C  0.48406358  0.65433148  0.07601800    -0.09000
C708        C  0.49879582  0.68347340  0.05222018     0.07200
C709        C  0.04233529  0.70392673  0.04034331    -0.02800
C710        C  0.07013656  0.69748072  0.05746833    -0.07200
C711        C  0.05466316  0.67050909  0.08326528     0.06300
C712        C  0.51196515  0.64740910  0.09154371    -0.02200
Br713      Br  0.48859698  0.60996919  0.12641573    -0.01900
H714        H  0.45127171  0.63881089  0.08483616     0.10200
H715        H  0.10404591  0.71431656  0.05129116     0.08300
Br716      Br  0.06517308  0.73891412  0.00376032    -0.02400
C717        C  0.32344557  0.66721928  0.04941803    -0.09000
C718        C  0.34931122  0.65370279  0.05604113     0.07200
C719        C  0.32941748  0.61822122  0.07323060    -0.02800
C720        C  0.28850362  0.60147160  0.08744626    -0.07200
C721        C  0.26727615  0.61962973  0.08612166     0.06300
C722        C  0.28416194  0.65185064  0.06555857    -0.02200
Br723      Br  0.25892410  0.67995134  0.06348746    -0.01900
H724        H  0.33616603  0.69286306  0.03472760     0.10200
H725        H  0.27583368  0.57665736  0.10331760     0.08300
Br726      Br  0.35616265  0.59213405  0.08256989    -0.02400
C727        C  0.29084334  0.94622154  0.31292176    -0.09000
C728        C  0.27056404  0.90871850  0.32505226     0.07200
C729        C  0.29363941  0.90042360  0.34684120    -0.02800
C730        C  0.33516746  0.92901931  0.35577785    -0.07200
C731        C  0.35295136  0.96667760  0.34635429     0.06300
C732        C  0.33080397  0.97521874  0.32440026    -0.02200
Br733      Br  0.35170545  0.02646761  0.31260885    -0.01900
H734        H  0.27416121  0.95352344  0.29628742     0.10200
H735        H  0.35122471  0.92251150  0.37382642     0.08300
Br736      Br  0.26827699  0.85354356  0.37144275    -0.02400
C737        C  0.12777740  0.89287801  0.35478127    -0.09000
C738        C  0.11945484  0.87292469  0.32649399     0.07200
C739        C  0.08032084  0.85951565  0.31048185    -0.02800
C740        C  0.04974854  0.86429717  0.32399666    -0.07200
C741        C  0.05790718  0.88301616  0.35293095     0.06300
C742        C  0.09765570  0.89791309  0.36797229    -0.02200
Br743      Br  0.11064275  0.92154115  0.40884398    -0.01900
H744        H  0.15692601  0.90273586  0.36799852     0.10200
H745        H  0.01916301  0.85257740  0.31234755     0.08300
Br746      Br  0.06712045  0.83518033  0.27002020    -0.02400
C747        C  0.11095198  0.71433203  0.34725338    -0.09000
C748        C  0.13911568  0.70607530  0.33518164     0.07200
C749        C  0.16802871  0.72933489  0.31014703    -0.02800
C750        C  0.17087762  0.76195791  0.29955788    -0.07200
C751        C  0.14818516  0.77393605  0.31572231     0.06300
C752        C  0.11673566  0.74881313  0.33932243    -0.02200
Br753      Br  0.08745918  0.76209201  0.36755403    -0.01900
H754        H  0.08954765  0.69712987  0.36727094     0.10200
H755        H  0.19462116  0.78020836  0.28112256     0.08300
Br756      Br  0.20994338  0.72167636  0.29432855    -0.02400
N757        N  0.12038748  0.64913386  0.86734416    -0.03300
C758        C  0.14734565  0.68619009  0.85793515    -0.00700
C759        C  0.17532897  0.70678868  0.88213476    -0.23600
C760        C  0.16469133  0.68248011  0.90801488    -0.23800
C761        C  0.13064690  0.64735955  0.89903535    -0.00800
H762        H  0.19774735  0.73715566  0.88217298     0.13000
H763        H  0.17880378  0.69016766  0.93168482     0.13000
N764        N  0.02406471  0.91218793  0.87637718    -0.03300
C765        C  0.02428641  0.88136595  0.87042511    -0.00700
C766        C  0.00413041  0.85472547  0.89543412    -0.23600
C767        C  0.99294953  0.87001946  0.91825671    -0.23800
C768        C  0.00687311  0.90600656  0.90694515    -0.00800
H769        H  0.00357924  0.82940758  0.89897598     0.13000
H770        H  0.98134064  0.85804757  0.94243064     0.13000
C771        C  0.15033884  0.86378747  0.81321238     0.03300
C772        C  0.19483629  0.89084859  0.81587978    -0.12900
C773        C  0.22402101  0.88043951  0.81586464     0.00800
C774        C  0.20831394  0.84264251  0.81113368    -0.11400
C775        C  0.16392971  0.81478871  0.80922768     0.03300
C776        C  0.13555115  0.82607515  0.80859100    -0.10800
H777        H  0.20641796  0.91970708  0.82056572     0.08900
H778        H  0.23070704  0.83457011  0.81129912     0.06400
H779        H  0.10149866  0.80488325  0.80719859     0.06300
N780        N  0.42339399  0.00113239  0.87463176    -0.03300
C781        C  0.38472933  0.99542556  0.86840628    -0.00700
C782        C  0.37327180  0.00960970  0.89234629    -0.23600
C783        C  0.40504986  0.02360880  0.91459454    -0.23800
C784        C  0.43495966  0.01716453  0.90388566    -0.00800
H785        H  0.34276815  0.00614318  0.89519154     0.13000
H786        H  0.40394654  0.03356273  0.93793860     0.13000
Zr787      Zr  0.05814087  0.52586836  0.95030916     2.17500
O788        O  0.12306379  0.53434753  0.92878269    -0.51200
O789        O  0.99904871  0.51923438  0.91872506    -0.74400
O790        O  0.03134285  0.96877965  0.92032001    -0.81200
O791        O  0.11123591  0.62635964  0.95372003    -0.82900
O792        O  0.01112535  0.92461641  0.96098110    -0.78500
O793        O  0.08829562  0.58197636  0.91599545    -0.90200
O794        O  0.45068607  0.01042509  0.95681474    -0.76100
O795        O  0.99788080  0.97701131  0.98145866    -0.85600
O796        O  0.03232508  0.55623093  0.97933622    -0.85300
O797        O  0.08582242  0.49847110  0.98499454    -0.72100
O798        O  0.11691099  0.57263644  0.98165116    -0.84200
Zr799      Zr  0.06019754  0.52570325  0.57733291     2.26400
Zr800      Zr  0.02397013  0.94931739  0.51568590     2.06300
Zr801      Zr  0.09370321  0.60165918  0.51011680     2.10000
Zr802      Zr  0.47226327  0.00572044  0.51143022     1.78800
O803        O  0.16804365  0.65468891  0.51556626    -0.93000
O804        O  0.40650320  0.94391315  0.50317278    -0.40800
O805        O  0.03436122  0.55497114  0.54328078    -0.77400
O806        O  0.99904060  0.97951814  0.54595889    -0.96100
O807        O  0.08193888  0.49239541  0.54834163    -0.89400
O808        O  0.11955616  0.57379963  0.54504618    -0.92300
C809        C  0.46368397  0.01565126  0.92736211     1.01500
C810        C  0.10783279  0.61623940  0.92411471     1.14400
C811        C  0.01627595  0.93504186  0.93061708     1.05200
O812        O  0.94998231  0.89451088  0.51923526    -0.94400
O813        O  0.01475714  0.92270085  0.57096623    -0.90200
O814        O  0.03766850  0.96757828  0.60801694    -0.83300
C815        C  0.02128897  0.93329169  0.60044864     1.11800
O816        O  0.18614961  0.54173725  0.97527951    -0.96400
Zr817      Zr  0.14180274  0.54037071  0.51697207     1.88900
O818        O  0.12611782  0.54739432  0.60661049    -0.73000
O819        O  0.05265564  0.91132714  0.51080673    -0.52300
O820        O  0.16053862  0.49657894  0.53347286    -0.97000
O821        O  0.21069619  0.59881778  0.50340172    -0.54200
O822        O  0.17618234  0.55935903  0.56936626    -0.73600
C823        C  0.16474575  0.55956053  0.59845796     0.98800
O824        O  0.00542101  0.51071678  0.61638093    -0.62400
O825        O  0.07380904  0.64613503  0.50100381    -0.57200
O826        O  0.07445543  0.58135020  0.60363810    -0.93900
O827        O  0.08539610  0.62245756  0.56254947    -0.92300
O828        O  0.44761846  0.54948110  0.51317681    -0.92700
O829        O  0.41981522  0.98763749  0.55468891    -0.91400
C830        C  0.08021336  0.61230485  0.59292674     1.17600
H831        H  0.02420382  0.56933436  0.96500059     0.33600
H832        H  0.97579934  0.96092260  0.56005975     0.44400
H833        H  0.14197033  0.59356993  0.55778024     0.37900
H834        H  0.09572248  0.48617399  0.97261035     0.34400
H835        H  0.38407373  0.94882620  0.49999113     0.26200
H836        H  0.07871942  0.92391166  0.52415473     0.32200
H837        H  0.19212479  0.51263321  0.53574350     0.38100
H838        H  0.46477078  0.06888881  0.99600411     0.32500
H839        H  0.10026904  0.66960740  0.49249702     0.31400
H840        H  0.16916318  0.66434714  0.53712313     0.33100
H841        H  0.23213447  0.59599837  0.51438733     0.32000
H842        H  0.41773809  0.96644301  0.56692160     0.36000
H843        H  0.49352193  0.52808247  0.60852337     0.28800
H844        H  0.13959652  0.55879540  0.91651076     0.33000
H845        H  0.17300995  0.51449781  0.97286468     0.35900
H846        H  0.53969156  0.63004325  0.01846216     0.28500
H847        H  0.47874560  0.97784460  0.61213278     0.41300
H848        H  0.93624583  0.89897772  0.03480818     0.31400
H849        H  0.41084899  0.93401353  0.98802756     0.39000
H850        H  0.21071589  0.61821046  0.51550051     0.30900
H851        H  0.02931954  0.88572593  0.02131273     0.30900
H852        H  0.11450124  0.51412865  0.91360460     0.31200
Zr853      Zr  0.05280587  0.52607217  0.69947293     2.17500
O854        O  0.98219727  0.50633461  0.68017260    -0.51200
O855        O  0.11777117  0.54760382  0.66741697    -0.74400
O856        O  0.07148314  0.58061551  0.66560705    -0.81200
O857        O  0.01415549  0.92794429  0.71121695    -0.82900
O858        O  0.08966917  0.62440325  0.70308149    -0.78500
O859        O  0.03174212  0.97006836  0.66927029    -0.90200
O860        O  0.16530887  0.56082919  0.70708148    -0.76100
O861        O  0.10941775  0.57579766  0.72942403    -0.85600
O862        O  0.08212761  0.49906646  0.73188303    -0.85300
O863        O  0.02192225  0.55129031  0.73074234    -0.72100
O864        O  0.99600454  0.97689648  0.73419312    -0.84200
Zr865      Zr  0.05129948  0.52642799  0.82744305     2.26400
Zr866      Zr  0.07885055  0.60062198  0.76037968     2.06300
Zr867      Zr  0.02835947  0.95245842  0.76592635     2.10000
Zr868      Zr  0.13808125  0.54863290  0.76145704     1.78800
O869        O  0.96123800  0.89016388  0.77014139    -0.93000
O870        O  0.20341226  0.61215979  0.76238932    -0.40800
O871        O  0.08264630  0.50155653  0.79683549    -0.77400
O872        O  0.10898017  0.57434392  0.79309832    -0.96100
O873        O  0.02227251  0.55386426  0.79552648    -0.89400
O874        O  0.99592703  0.97504932  0.79818505    -0.92300
C875        C  0.15579974  0.55995146  0.67726426     1.01500
C876        C  0.01737148  0.93674415  0.68062729     1.14400
C877        C  0.08521029  0.61416559  0.67338863     1.05200
O878        O  0.14149839  0.66465943  0.75154490    -0.94400
O879        O  0.10034957  0.62940233  0.81395198    -0.90200
O880        O  0.07802903  0.58491974  0.85457903    -0.83300
C881        C  0.09721632  0.61940988  0.84432623     1.11800
O882        O  0.41202981  0.98309129  0.72467409    -0.96400
Zr883      Zr  0.46501747  0.00184206  0.76701236     1.88900
O884        O  0.98886348  0.51181049  0.85783069    -0.73000
O885        O  0.03204602  0.62259015  0.76199670    -0.52300
O886        O  0.44060464  0.54415319  0.76654796    -0.97000
O887        O  0.39947350  0.93845293  0.77434774    -0.54200
O888        O  0.43785358  0.99785334  0.82085249    -0.73600
C889        C  0.45144982  0.00305965  0.84991931     0.98800
O890        O  0.10824064  0.54094733  0.86393794    -0.62400
O891        O  0.06972829  0.92503040  0.76583431    -0.57200
O892        O  0.03692482  0.97083809  0.85847478    -0.93900
O893        O  0.02754170  0.92933861  0.82142729    -0.92300
O894        O  0.16232148  0.50713888  0.75834536    -0.92700
O895        O  0.18702881  0.55705440  0.80422393    -0.91400
C896        C  0.03033704  0.93925154  0.85093537     1.17600
H897        H  0.09308337  0.48829536  0.71853645     0.33600
H898        H  0.13225684  0.59350431  0.80577256     0.44400
H899        H  0.97495515  0.95546524  0.81302511     0.37900
H900        H  0.01030471  0.56180953  0.71678926     0.34400
H901        H  0.22590189  0.61011051  0.75283050     0.26200
H902        H  0.04436956  0.64174448  0.77872366     0.32200
H903        H  0.45034163  0.05789229  0.78208483     0.38100
H904        H  0.18987819  0.52222198  0.74613724     0.32500
H905        H  0.08005412  0.92835103  0.74326497     0.31400
H906        H  0.97016186  0.87252351  0.77169986     0.33100
H907        H  0.37941107  0.94159958  0.78665493     0.32000
H908        H  0.18639819  0.57392589  0.81943778     0.36000
H909        H  0.11935645  0.52651764  0.85610724     0.28800
H910        H  0.97023082  0.48311505  0.66808594     0.33000
H911        H  0.38743491  0.98163696  0.73476954     0.36500
H912        H  0.09584699  0.94260481  0.77809976     0.28500
H913        H  0.13175337  0.56757456  0.85885409     0.41300
H914        H  0.16270651  0.66178553  0.74073746     0.31400
H915        H  0.19901644  0.62691970  0.74596009     0.39000
H916        H  0.40667332  0.92468673  0.78964544     0.30900
H917        H  0.52171640  0.62324299  0.74268798     0.30900
H918        H  0.48365162  0.52653875  0.66482856     0.31200
N919        N  0.19778326  0.57621602  0.62260643    -0.03300
C920        C  0.24109195  0.59703627  0.61661444    -0.00700
C921        C  0.26395074  0.61087103  0.64446132    -0.23600
C922        C  0.23465554  0.59848897  0.66878381    -0.23800
C923        C  0.19410505  0.57720587  0.65537834    -0.00800
H924        H  0.29851508  0.62861319  0.64667837     0.13000
H925        H  0.24244460  0.60487949  0.69392037     0.13000
N926        N  0.08239310  0.63820102  0.61570699    -0.03300
C927        C  0.08252389  0.66887473  0.60603436    -0.00700
C928        C  0.09901918  0.69485929  0.62988193    -0.23600
C929        C  0.10690503  0.67900364  0.65581632    -0.23800
C930        C  0.09483247  0.64341629  0.64743379    -0.00800
H931        H  0.09954696  0.72025632  0.63011527     0.13000
H932        H  0.11575057  0.69058389  0.67957098     0.13000
C933        C  0.46826018  0.69702341  0.54062931     0.03300
C934        C  0.42348511  0.67042798  0.53839371    -0.12900
C935        C  0.39438256  0.67900002  0.54825712     0.00800
C936        C  0.41203310  0.71686125  0.55593903    -0.11400
C937        C  0.45603347  0.74563989  0.55182342     0.03300
C938        C  0.48400753  0.73499823  0.54487080    -0.10800
H939        H  0.41234099  0.64264262  0.53110522     0.08900
H940        H  0.39181910  0.72404408  0.56684215     0.06400
H941        H  0.01939493  0.75476562  0.54454127     0.06300
N942        N  0.00794340  0.90429341  0.62595592    -0.03300
C943        C  0.99282370  0.86759524  0.62065593    -0.00700
C944        C  0.97727871  0.84552313  0.64867298    -0.23600
C945        C  0.98345048  0.86872988  0.67260237    -0.23800
C946        C  0.00285850  0.90481676  0.65883928    -0.00800
H947        H  0.96450568  0.81582048  0.65155145     0.13000
H948        H  0.97575966  0.86015207  0.69789534     0.13000
C949        C  0.45829363  0.83247265  0.57149224    -0.09000
C950        C  0.99677961  0.85148072  0.59109383     0.07200
C951        C  0.02511627  0.84017901  0.59133014    -0.02800
C952        C  0.01426771  0.80777879  0.57558328    -0.07200
C953        C  0.47279499  0.78530926  0.56047854     0.06300
C954        C  0.44903063  0.80118764  0.55452204    -0.02200
Br955      Br  0.40333076  0.78145562  0.52401355    -0.01900
H956        H  0.43633870  0.84105019  0.57032398     0.10200
H957        H  0.03385358  0.79713420  0.58001215     0.08300
Br958      Br  0.07622360  0.86568940  0.61650581    -0.02400
C959        C  0.48114111  0.65540767  0.57380563    -0.09000
C960        C  0.49635376  0.68380055  0.54929154     0.07200
C961        C  0.03877162  0.70090030  0.53997017    -0.02800
C962        C  0.06667562  0.69432049  0.55669453    -0.07200
C963        C  0.05174747  0.66782579  0.58275339     0.06300
C964        C  0.50848363  0.64840175  0.59009246    -0.02200
Br965      Br  0.48405351  0.61163859  0.62541975    -0.01900
H966        H  0.44831851  0.64054792  0.58248610     0.10200
H967        H  0.10043731  0.71086902  0.55005360     0.08300
Br968      Br  0.06161446  0.73523268  0.50297568    -0.02400
C969        C  0.31889114  0.66180692  0.55324234    -0.09000
C970        C  0.34663171  0.64950819  0.55423422     0.07200
C971        C  0.32831334  0.61157234  0.56599640    -0.02800
C972        C  0.28739941  0.59081590  0.58068684    -0.07200
C973        C  0.26469462  0.60699724  0.58556241     0.06300
C974        C  0.27946186  0.64185748  0.56999697    -0.02200
Br975      Br  0.25078573  0.66638963  0.57636629    -0.01900
H976        H  0.32960154  0.68904771  0.54227002     0.10200
H977        H  0.27594080  0.56375216  0.59258026     0.08300
Br978      Br  0.35620497  0.58564247  0.56777803    -0.02400
C979        C  0.29163143  0.94561031  0.81185789    -0.09000
C980        C  0.26975075  0.90832621  0.82479511     0.07200
C981        C  0.29025213  0.89990624  0.84901673    -0.02800
C982        C  0.33122159  0.92824864  0.85933225    -0.07200
C983        C  0.35116178  0.96574260  0.84810201     0.06300
C984        C  0.33107977  0.97434899  0.82421868    -0.02200
Br985      Br  0.35400433  0.02563256  0.81092015    -0.01900
H986        H  0.27657614  0.95298177  0.79365743     0.10200
H987        H  0.34536928  0.92180225  0.87906657     0.08300
Br988      Br  0.26176813  0.85295096  0.87394183    -0.02400
C989        C  0.12870458  0.89330799  0.85160951    -0.09000
C990        C  0.11957297  0.87313280  0.82333941     0.07200
C991        C  0.07977396  0.85931330  0.80824410    -0.02800
C992        C  0.04942364  0.86387082  0.82269895    -0.07200
C993        C  0.05860710  0.88312951  0.85150640     0.06300
C994        C  0.09906192  0.89851571  0.86548823    -0.02200
Br995      Br  0.11406805  0.92360117  0.90570627    -0.01900
H996        H  0.15830460  0.90342682  0.86425637     0.10200
H997        H  0.01829421  0.85166065  0.81182989     0.08300
Br998      Br  0.06550498  0.83480271  0.76778652    -0.02400
C999        C  0.10846979  0.71409628  0.84378773    -0.09000
C1000       C  0.13770671  0.70618932  0.83371105     0.07200
C1001       C  0.16834260  0.72958814  0.80966826    -0.02800
C1002       C  0.17181112  0.76223514  0.79825032    -0.07200
C1003       C  0.14800949  0.77409707  0.81287912     0.06300
C1004       C  0.11496597  0.74874654  0.83544292    -0.02200
Br1005     Br  0.08452231  0.76195405  0.86242811    -0.01900
H1006       H  0.08566320  0.69665837  0.86305457     0.10200
H1007       H  0.19683706  0.78063526  0.78064704     0.08300
Br1008     Br  0.21159666  0.72210665  0.79689668    -0.02400
N1009       N  0.61997803  0.14853822  0.36797439    -0.03300
C1010       C  0.64653677  0.18596066  0.35955080    -0.00700
C1011       C  0.67456982  0.20572557  0.38399857    -0.23600
C1012       C  0.66425575  0.18054814  0.40908527    -0.23800
C1013       C  0.63032964  0.14575305  0.39941438    -0.00800
H1014       H  0.69664549  0.23606879  0.38489395     0.13000
H1015       H  0.67820185  0.18746555  0.43285143     0.13000
N1016       N  0.52379494  0.41388875  0.37688215    -0.03300
C1017       C  0.52301932  0.38264267  0.37111476    -0.00700
C1018       C  0.50043057  0.35536139  0.39529923    -0.23600
C1019       C  0.48885237  0.37082334  0.41765677    -0.23800
C1020       C  0.50516276  0.40749265  0.40682697    -0.00800
H1021       H  0.49831451  0.32930457  0.39878134     0.13000
H1022       H  0.47546281  0.35840129  0.44142029     0.13000
C1023       C  0.65021438  0.36501590  0.31666690     0.03300
C1024       C  0.69472087  0.39197579  0.31936828    -0.12900
C1025       C  0.72383883  0.38152611  0.31846210     0.00800
C1026       C  0.70799904  0.34373592  0.31344420    -0.11400
C1027       C  0.66359428  0.31595603  0.31197944     0.03300
C1028       C  0.63528596  0.32731684  0.31174201    -0.10800
H1029       H  0.70646732  0.42079986  0.32438389     0.08900
H1030       H  0.73029123  0.33555376  0.31316529     0.06400
H1031       H  0.60116944  0.30611411  0.31064017     0.06300
N1032       N  0.92441405  0.50124296  0.37499816    -0.03300
C1033       C  0.88635776  0.49661166  0.36831291    -0.00700
C1034       C  0.87551955  0.51166833  0.39189657    -0.23600
C1035       C  0.90695381  0.52503518  0.41441850    -0.23800
C1036       C  0.93622813  0.51763235  0.40411949    -0.00800
H1037       H  0.84545140  0.50906608  0.39440922     0.13000
H1038       H  0.90609091  0.53544614  0.43758802     0.13000
Zr1039     Zr  0.55669013  0.02383881  0.45019595     2.17500
O1040       O  0.61996078  0.03109931  0.42662446    -0.51200
O1041       O  0.49787827  0.01703055  0.41887880    -0.74400
O1042       O  0.53039880  0.47020770  0.42052502    -0.81200
O1043       O  0.60935557  0.12393672  0.45370673    -0.82900
O1044       O  0.51204049  0.42619109  0.46101257    -0.78500
O1045       O  0.58786990  0.08005197  0.41577786    -0.90200
O1046       O  0.95223400  0.51154746  0.45718120    -0.76100
O1047       O  0.49812787  0.47853058  0.48089711    -0.85600
O1048       O  0.53070335  0.05420530  0.47914307    -0.85300
O1049       O  0.58403542  0.99605163  0.48457138    -0.72100
O1050       O  0.61513013  0.07031708  0.48159284    -0.84200
Zr1051     Zr  0.55841350  0.02636294  0.07698669     2.26400
Zr1052     Zr  0.52508973  0.45068338  0.01568582     2.06300
Zr1053     Zr  0.58917957  0.10145479  0.00994069     2.10000
Zr1054     Zr  0.97365834  0.50760955  0.01128361     1.78800
O1055       O  0.66065473  0.15878490  0.01532895    -0.93000
O1056       O  0.90941983  0.44475596  0.00315614    -0.40800
O1057       O  0.53042579  0.05355605  0.04277571    -0.77400
O1058       O  0.50122636  0.48156018  0.04632080    -0.96100
O1059       O  0.58218581  0.99431691  0.04835177    -0.89400
O1060       O  0.61679364  0.07496417  0.04421506    -0.92300
C1061       C  0.96506006  0.51638183  0.42771633     1.01500
C1062       C  0.60687056  0.11420418  0.42408347     1.14400
C1063       C  0.51596302  0.43655875  0.43073050     1.05200
O1064       O  0.45148653  0.39515673  0.01856246    -0.94400
O1065       O  0.51315576  0.42351065  0.07087547    -0.90200
O1066       O  0.53836085  0.46872446  0.10782551    -0.83300
C1067       C  0.52038786  0.43419902  0.10030193     1.11800
O1068       O  0.68551816  0.04127718  0.47483695    -0.96400
Zr1069     Zr  0.64123006  0.04264732  0.01685461     1.88900
O1070       O  0.62573834  0.05214078  0.10565843    -0.73000
O1071       O  0.55659852  0.41461981  0.01565310    -0.52300
O1072       O  0.65474920  0.99635969  0.03674246    -0.97000
O1073       O  0.71235326  0.09793141  0.00234982    -0.54200
O1074       O  0.67667613  0.06568967  0.06847714    -0.73600
C1075       C  0.66499694  0.06662852  0.09730341     0.98800
O1076       O  0.50066442  0.01104644  0.11322717    -0.62400
O1077       O  0.56149469  0.14019050  0.00079465    -0.57200
O1078       O  0.57045968  0.08089158  0.10410338    -0.93900
O1079       O  0.58468404  0.12318840  0.06316226    -0.92300
O1080       O  0.94814125  0.04839318  0.01212995    -0.92700
O1081       O  0.92093164  0.48925323  0.05440060    -0.91400
C1082       C  0.57836997  0.11270341  0.09348652     1.17600
H1083       H  0.52257009  0.06734013  0.46484159     0.33600
H1084       H  0.47813170  0.46326230  0.06065342     0.44400
H1085       H  0.63882146  0.09554154  0.05650980     0.37900
H1086       H  0.59425762  0.98409733  0.47205247     0.34400
H1087       H  0.88568028  0.44820948  0.00195865     0.26200
H1088       H  0.57726335  0.42463702  0.03356613     0.32200
H1089       H  0.68619214  0.00930373  0.03444544     0.38100
H1090       H  0.98289383  0.58024545  0.51647768     0.32500
H1091       H  0.55110208  0.13574775  0.97833886     0.31400
H1092       H  0.67758960  0.15872918  0.99724694     0.33100
H1093       H  0.73223839  0.09540760  0.01605096     0.32000
H1094       H  0.91912156  0.46824999  0.06676500     0.36000
H1095       H  0.99394721  0.02394192  0.10892458     0.28800
H1096       H  0.63733894  0.05631441  0.41563451     0.33000
H1097       H  0.71088699  0.04501408  0.48592516     0.35900
H1098       H  0.04224908  0.13286853  0.51545781     0.28500
H1099       H  0.98011816  0.48392185  0.11148124     0.41300
H1100       H  0.45100118  0.37627933  0.50990129     0.31400
H1101       H  0.91215663  0.43319511  0.50008297     0.39000
H1102       H  0.71296509  0.11928706  0.01114248     0.30900
H1103       H  0.52957914  0.38748562  0.52144530     0.30900
H1104       H  0.61019873  0.01195917  0.41013504     0.31200
Zr1105     Zr  0.55236650  0.02670223  0.19928347     2.17500
O1106       O  0.48274955  0.00817778  0.17875001    -0.51200
O1107       O  0.61790398  0.05414728  0.16643860    -0.74400
O1108       O  0.56975397  0.08102766  0.16588635    -0.81200
O1109       O  0.51253893  0.42892489  0.21118440    -0.82900
O1110       O  0.58688512  0.12413147  0.20372350    -0.78500
O1111       O  0.53208733  0.47139835  0.16923752    -0.90200
O1112       O  0.66858534  0.07155146  0.20457032    -0.76100
O1113       O  0.60880394  0.07705264  0.22859576    -0.85600
O1114       O  0.58424535  0.00101615  0.23031474    -0.85300
O1115       O  0.52045359  0.05024474  0.23157420    -0.72100
O1116       O  0.49708805  0.47994854  0.23398315    -0.84200
Zr1117     Zr  0.55313396  0.02659876  0.32710051     2.26400
Zr1118     Zr  0.57762941  0.10037474  0.26075599     2.06300
Zr1119     Zr  0.52614201  0.45294865  0.26619283     2.10000
Zr1120     Zr  0.64031237  0.05153309  0.25907621     1.78800
O1121       O  0.45483464  0.39459759  0.27090748    -0.93000
O1122       O  0.70275631  0.11604128  0.26435312    -0.40800
O1123       O  0.58617249  0.00390372  0.29534078    -0.77400
O1124       O  0.60978716  0.07511581  0.29221161    -0.96100
O1125       O  0.52203662  0.05253175  0.29590257    -0.89400
O1126       O  0.49571678  0.47771398  0.29796275    -0.92300
C1127       C  0.65716155  0.07064800  0.17518790     1.01500
C1128       C  0.51651094  0.43783559  0.18056366     1.14400
C1129       C  0.58275617  0.11427142  0.17396485     1.05200
O1130       O  0.63942394  0.16442841  0.25008668    -0.94400
O1131       O  0.60080105  0.12968790  0.31414509    -0.90200
O1132       O  0.57849990  0.08471394  0.35433471    -0.83300
C1133       C  0.59749985  0.11930719  0.34443709     1.11800
O1134       O  0.91253698  0.48388645  0.22538236    -0.96400
Zr1135     Zr  0.96533304  0.50129269  0.26756644     1.88900
O1136       O  0.49052996  0.01256679  0.35775504    -0.73000
O1137       O  0.53291527  0.12433707  0.26399679    -0.52300
O1138       O  0.93893753  0.04110085  0.26695368    -0.97000
O1139       O  0.89964414  0.43779556  0.27159646    -0.54200
O1140       O  0.93780024  0.49573095  0.32157806    -0.73600
C1141       C  0.95204119  0.50212321  0.35046603     0.98800
O1142       O  0.61323280  0.04422589  0.36121184    -0.62400
O1143       O  0.55947944  0.41846230  0.26372283    -0.57200
O1144       O  0.53644587  0.47220403  0.35871756    -0.93900
O1145       O  0.52780672  0.43088522  0.32174561    -0.92300
O1146       O  0.66742843  0.01299386  0.24973607    -0.92700
O1147       O  0.69032019  0.05635994  0.29935499    -0.91400
C1148       C  0.53029759  0.44080587  0.35125391     1.17600
H1149       H  0.59549405  0.99098741  0.21634607     0.33600
H1150       H  0.63302877  0.09458392  0.30468197     0.44400
H1151       H  0.47411798  0.45840800  0.31264673     0.37900
H1152       H  0.50790669  0.06026693  0.21807428     0.34400
H1153       H  0.72486281  0.11848340  0.24973247     0.26200
H1154       H  0.53172886  0.12815707  0.28728022     0.32200
H1155       H  0.95486180  0.55935164  0.28466257     0.38100
H1156       H  0.69679183  0.03088458  0.24075915     0.32500
H1157       H  0.57221988  0.42404881  0.24171835     0.31400
H1158       H  0.46012675  0.37461407  0.27365506     0.33100
H1159       H  0.89828463  0.42866203  0.29414737     0.32000
H1160       H  0.68803830  0.06968803  0.31730570     0.36000
H1161       H  0.62420874  0.02970713  0.35334908     0.28800
H1162       H  0.47118140  0.98498088  0.16672950     0.33000
H1163       H  0.88888581  0.48396160  0.23540953     0.36500
H1164       H  0.58454175  0.43204212  0.27802107     0.28500
H1165       H  0.63611183  0.07076659  0.35516211     0.41300
H1166       H  0.62787413  0.18011466  0.24989476     0.31400
H1167       H  0.69443220  0.13195842  0.25373876     0.39000
H1168       H  0.90566552  0.42248328  0.25848667     0.30900
H1169       H  0.03639142  0.13460307  0.23958652     0.30900
H1170       H  0.98476890  0.02399615  0.16559070     0.31200
N1171       N  0.69827308  0.08876805  0.12033667    -0.03300
C1172       C  0.74037648  0.11599025  0.11273605    -0.00700
C1173       C  0.76154234  0.13780535  0.13870668    -0.23600
C1174       C  0.73245591  0.12384373  0.16348975    -0.23800
C1175       C  0.69389403  0.09372774  0.15215390    -0.00800
H1176       H  0.79514572  0.16073807  0.13971533     0.13000
H1177       H  0.73905645  0.13427204  0.18768575     0.13000
N1178       N  0.58164062  0.13920770  0.11619955    -0.03300
C1179       C  0.58253538  0.17025345  0.10643527    -0.00700
C1180       C  0.59775702  0.19564727  0.13073990    -0.23600
C1181       C  0.60394254  0.17905111  0.15700831    -0.23800
C1182       C  0.59231668  0.14368743  0.14831671    -0.00800
H1183       H  0.59821139  0.22101334  0.13095123     0.13000
H1184       H  0.61152531  0.19006296  0.18100365     0.13000
C1185       C  0.96752576  0.19551049  0.04120493     0.03300
C1186       C  0.92232742  0.17038037  0.03913701    -0.12900
C1187       C  0.89514491  0.18192089  0.04687306     0.00800
C1188       C  0.91482943  0.22035854  0.05301618    -0.11400
C1189       C  0.95934819  0.24718388  0.05007125     0.03300
C1190       C  0.98547955  0.23413462  0.04492861    -0.10800
H1191       H  0.90894739  0.14152667  0.03347766     0.08900
H1192       H  0.89549348  0.22943693  0.06214202     0.06400
H1193       H  0.51987872  0.25627925  0.04572643     0.06300
N1194       N  0.50624837  0.40508299  0.12579642    -0.03300
C1195       C  0.49049435  0.36823926  0.12043140    -0.00700
C1196       C  0.47529797  0.34633369  0.14854758    -0.23600
C1197       C  0.48212259  0.36972030  0.17251935    -0.23800
C1198       C  0.50159789  0.40579719  0.15873279    -0.00800
H1199       H  0.46259537  0.31665151  0.15148958     0.13000
H1200       H  0.47490496  0.36125969  0.19786383     0.13000
C1201       C  0.96477871  0.33557464  0.06860829    -0.09000
C1202       C  0.49480801  0.35204465  0.09100392     0.07200
C1203       C  0.52373138  0.34137302  0.09150579    -0.02800
C1204       C  0.51352265  0.30898151  0.07600503    -0.07200
C1205       C  0.97780156  0.28725443  0.05846869     0.06300
C1206       C  0.95632837  0.30493368  0.05091992    -0.02200
Br1207     Br  0.91479067  0.28820521  0.01722986    -0.01900
H1208       H  0.94375527  0.34505719  0.06625068     0.10200
H1209       H  0.53350040  0.29878624  0.08068156     0.08300
Br1210     Br  0.57459336  0.36762166  0.11693712    -0.02400
C1211       C  0.97914352  0.15180171  0.07285984    -0.09000
C1212       C  0.99455585  0.18078081  0.04883922     0.07200
C1213       C  0.53982797  0.20293068  0.04009429    -0.02800
C1214       C  0.56764048  0.19641877  0.05703364    -0.07200
C1215       C  0.55232862  0.16952597  0.08282788     0.06300
C1216       C  0.00656757  0.14472664  0.08912580    -0.02200
Br1217     Br  0.98248306  0.10819864  0.12463894    -0.01900
H1218       H  0.94632867  0.13687052  0.08145701     0.10200
H1219       H  0.60151944  0.21324782  0.05076321     0.08300
Br1220     Br  0.56261634  0.23767648  0.00337186    -0.02400
C1221       C  0.82162356  0.16945263  0.04723220    -0.09000
C1222       C  0.84703216  0.15516424  0.05263203     0.07200
C1223       C  0.82685753  0.11931659  0.06924973    -0.02800
C1224       C  0.78603722  0.10244213  0.08359643    -0.07200
C1225       C  0.76527147  0.12094562  0.08330448     0.06300
C1226       C  0.78234098  0.15377588  0.06356374    -0.02200
Br1227     Br  0.75680500  0.18168676  0.06303549    -0.01900
H1228       H  0.83449883  0.19555563  0.03321014     0.10200
H1229       H  0.77326557  0.07727703  0.09902336     0.08300
Br1230     Br  0.85346393  0.09311850  0.07847960    -0.02400
C1231       C  0.79188097  0.44629434  0.31293483    -0.09000
C1232       C  0.76980884  0.40935292  0.32666341     0.07200
C1233       C  0.79061324  0.40112842  0.35071875    -0.02800
C1234       C  0.83191295  0.42942336  0.36042664    -0.07200
C1235       C  0.85218409  0.46668767  0.34847639     0.06300
C1236       C  0.83208204  0.47500567  0.32433113    -0.02200
Br1237     Br  0.85652936  0.52588952  0.30882813    -0.01900
H1238       H  0.77661805  0.45340513  0.29469539     0.10200
H1239       H  0.84624434  0.42319149  0.38016716     0.08300
Br1240     Br  0.76232007  0.35444068  0.37597854    -0.02400
C1241       C  0.62793405  0.39442206  0.35479542    -0.09000
C1242       C  0.61941579  0.37440099  0.32647738     0.07200
C1243       C  0.58004334  0.36077361  0.31078165    -0.02800
C1244       C  0.54934803  0.36508381  0.32470831    -0.07200
C1245       C  0.55778613  0.38405585  0.35348645     0.06300
C1246       C  0.59789682  0.39953105  0.36812450    -0.02200
Br1247     Br  0.61195182  0.42492592  0.40817879    -0.01900
H1248       H  0.65732339  0.40458048  0.36776800     0.10200
H1249       H  0.51856032  0.35309910  0.31331757     0.08300
Br1250     Br  0.56676222  0.33711134  0.27000405    -0.02400
C1251       C  0.60932471  0.21624092  0.34843997    -0.09000
C1252       C  0.63655483  0.20682866  0.33657063     0.07200
C1253       C  0.66594044  0.22947770  0.31162023    -0.02800
C1254       C  0.66997959  0.26254727  0.30061592    -0.07200
C1255       C  0.64758360  0.27528281  0.31611815     0.06300
C1256       C  0.61600360  0.25094654  0.33991755    -0.02200
Br1257     Br  0.58794069  0.26585932  0.36771742    -0.01900
H1258       H  0.58788688  0.19969010  0.36863957     0.10200
H1259       H  0.69421175  0.28041863  0.28234212     0.08300
Br1260     Br  0.70693379  0.22010471  0.29684797    -0.02400
N1261       N  0.62145548  0.14882048  0.86716165    -0.03300
C1262       C  0.64860842  0.18588029  0.85774468    -0.00700
C1263       C  0.67699575  0.20615063  0.88188420    -0.23600
C1264       C  0.66646495  0.18163473  0.90763077    -0.23800
C1265       C  0.63201861  0.14669916  0.89869278    -0.00800
H1266       H  0.69943853  0.23650582  0.88212443     0.13000
H1267       H  0.68071889  0.18912957  0.93126908     0.13000
N1268       N  0.52457703  0.41388612  0.87622564    -0.03300
C1269       C  0.52423351  0.38294115  0.87011389    -0.00700
C1270       C  0.50187416  0.35541849  0.89416108    -0.23600
C1271       C  0.49019489  0.37051845  0.91683451    -0.23800
C1272       C  0.50609274  0.40719904  0.90630116    -0.00800
H1273       H  0.50024522  0.32956237  0.89742181     0.13000
H1274       H  0.47710519  0.35788183  0.94059783     0.13000
C1275       C  0.65108442  0.36432169  0.81746702     0.03300
C1276       C  0.69546721  0.39114439  0.82040644    -0.12900
C1277       C  0.72458558  0.38076957  0.81912913     0.00800
C1278       C  0.70882880  0.34310138  0.81380378    -0.11400
C1279       C  0.66442125  0.31532998  0.81224745     0.03300
C1280       C  0.63603799  0.32663567  0.81239824    -0.10800
H1281       H  0.70711256  0.41988618  0.82567955     0.08900
H1282       H  0.73120543  0.33504659  0.81301118     0.06400
H1283       H  0.60188698  0.30554965  0.81113605     0.06300
N1284       N  0.92395892  0.50197921  0.87454725    -0.03300
C1285       C  0.88592436  0.49720194  0.86790431    -0.00700
C1286       C  0.87419095  0.51079951  0.89217067    -0.23600
C1287       C  0.90511613  0.52330154  0.91506201    -0.23800
C1288       C  0.93505148  0.51687998  0.90430896    -0.00800
H1289       H  0.84377286  0.50752679  0.89486234     0.13000
H1290       H  0.90348606  0.53249431  0.93864365     0.13000
Zr1291     Zr  0.55635748  0.02489131  0.95013322     2.17500
O1292       O  0.61843691  0.03010974  0.92657009    -0.51200
O1293       O  0.49894630  0.02030504  0.91842103    -0.74400
O1294       O  0.53192211  0.46996916  0.92042109    -0.81200
O1295       O  0.61142707  0.12583146  0.95334593    -0.82900
O1296       O  0.51193497  0.42546780  0.96077018    -0.78500
O1297       O  0.58880786  0.08130491  0.91583603    -0.90200
O1298       O  0.95217126  0.51179449  0.95727294    -0.76100
O1299       O  0.49861872  0.47864207  0.98178879    -0.85600
O1300       O  0.53115444  0.05585059  0.97906941    -0.85300
O1301       O  0.58322414  0.99658898  0.98442994    -0.72100
O1302       O  0.61532267  0.07114545  0.98158805    -0.84200
Zr1303     Zr  0.55816199  0.02437844  0.57747872     2.26400
Zr1304     Zr  0.52451485  0.45116070  0.51569076     2.06300
Zr1305     Zr  0.58820687  0.09966092  0.51037391     2.10000
Zr1306     Zr  0.97546484  0.51080503  0.51135894     1.78800
O1307       O  0.65954778  0.15712346  0.51587622    -0.93000
O1308       O  0.90659407  0.44979391  0.51159566    -0.40800
O1309       O  0.52984081  0.05152086  0.54349158    -0.77400
O1310       O  0.49915420  0.48119154  0.54559341    -0.96100
O1311       O  0.58302621  0.99356762  0.54834904    -0.89400
O1312       O  0.61625290  0.07360259  0.54506197    -0.92300
C1313       C  0.96431852  0.51569606  0.92771594     1.01500
C1314       C  0.60853570  0.11563443  0.92382781     1.14400
C1315       C  0.51665935  0.43609706  0.93046091     1.05200
O1316       O  0.45040400  0.39671812  0.51941993    -0.94400
O1317       O  0.51458857  0.42451948  0.57078033    -0.90200
O1318       O  0.53658541  0.46925896  0.60779610    -0.83300
C1319       C  0.52057046  0.43503644  0.60021616     1.11800
O1320       O  0.68144460  0.03925980  0.97295795    -0.96400
Zr1321     Zr  0.64170975  0.04267498  0.51686969     1.88900
O1322       O  0.62517203  0.04887709  0.60609228    -0.73000
O1323       O  0.55350475  0.41310509  0.51394634    -0.52300
O1324       O  0.66204872  0.00001174  0.53355008    -0.97000
O1325       O  0.70626197  0.10405625  0.50191342    -0.54200
O1326       O  0.67628685  0.06340773  0.56876524    -0.73600
C1327       C  0.66436368  0.06319894  0.59776467     0.98800
O1328       O  0.50009085  0.00511730  0.61497197    -0.62400
O1329       O  0.56169624  0.13919820  0.50035317    -0.57200
O1330       O  0.56963218  0.07894094  0.60425503    -0.93900
O1331       O  0.58126391  0.12025698  0.56315262    -0.92300
O1332       O  0.94789385  0.04827990  0.51308574    -0.92700
O1333       O  0.92853091  0.50277839  0.55559110    -0.91400
C1334       C  0.57594795  0.11014960  0.59348993     1.17600
H1335       H  0.52315598  0.06902322  0.96470733     0.33600
H1336       H  0.47589565  0.46252228  0.55965756     0.44400
H1337       H  0.63806304  0.09396094  0.55768048     0.37900
H1338       H  0.59291480  0.98417052  0.97198752     0.34400
H1339       H  0.88860490  0.45353829  0.49668805     0.26200
H1340       H  0.57443236  0.42217660  0.53166448     0.32200
H1341       H  0.64514692  0.97812586  0.51965946     0.38100
H1342       H  0.96534652  0.56880339  0.99820569     0.32500
H1343       H  0.55230617  0.13532516  0.47763325     0.31400
H1344       H  0.65433109  0.17667501  0.52026467     0.33100
H1345       H  0.72983886  0.10436069  0.51279276     0.32000
H1346       H  0.94657148  0.52497077  0.56895034     0.36000
H1347       H  0.99058056  0.02367089  0.60547388     0.28800
H1348       H  0.63643513  0.05526854  0.91557746     0.33000
H1349       H  0.67477017  0.01345133  0.97467372     0.35900
H1350       H  0.04371162  0.13284551  0.01562887     0.28500
H1351       H  0.98114624  0.48466989  0.61204776     0.41300
H1352       H  0.45237784  0.37568932  0.00737834     0.31400
H1353       H  0.91235498  0.43883699  0.98087221     0.39000
H1354       H  0.70342415  0.12213416  0.51368398     0.30900
H1355       H  0.53323112  0.38890881  0.02343463     0.30900
H1356       H  0.60809191  0.01091180  0.91006740     0.31200
Zr1357     Zr  0.55124725  0.02505990  0.69950065     2.17500
O1358       O  0.48059113  0.00449600  0.67980269    -0.51200
O1359       O  0.61640034  0.05019170  0.66653897    -0.74400
O1360       O  0.56770938  0.07900071  0.66593808    -0.81200
O1361       O  0.51319387  0.42950970  0.71092719    -0.82900
O1362       O  0.58711619  0.12308448  0.70331827    -0.78500
O1363       O  0.53156875  0.47197180  0.66917084    -0.90200
O1364       O  0.66567893  0.06684818  0.70550101    -0.76100
O1365       O  0.60816743  0.07513622  0.72878389    -0.85600
O1366       O  0.58170849  0.99849488  0.73120298    -0.85300
O1367       O  0.52042017  0.05001110  0.73120791    -0.72100
O1368       O  0.49590278  0.47860946  0.73421978    -0.84200
Zr1369     Zr  0.55219406  0.02648365  0.82721768     2.26400
Zr1370     Zr  0.57800782  0.09987321  0.76039080     2.06300
Zr1371     Zr  0.52789417  0.45369021  0.76578179     2.10000
Zr1372     Zr  0.63819998  0.04866878  0.75992631     1.78800
O1373       O  0.45877608  0.39319130  0.77191802    -0.93000
O1374       O  0.70120680  0.11293740  0.76482504    -0.40800
O1375       O  0.58343984  0.00179063  0.79602395    -0.77400
O1376       O  0.60922911  0.07411153  0.79231819    -0.96100
O1377       O  0.52175843  0.05285119  0.79560691    -0.89400
O1378       O  0.49618761  0.47661500  0.79831944    -0.92300
C1379       C  0.65531067  0.06573266  0.67588511     1.01500
C1380       C  0.51670660  0.43848355  0.68037379     1.14400
C1381       C  0.58160788  0.11255929  0.67371885     1.05200
O1382       O  0.64207687  0.16299668  0.75068898    -0.94400
O1383       O  0.60050683  0.12900098  0.81385657    -0.90200
O1384       O  0.57861207  0.08466198  0.85453574    -0.83300
C1385       C  0.59778722  0.11911315  0.84422327     1.11800
O1386       O  0.91612300  0.49005462  0.72252270    -0.96400
Zr1387     Zr  0.96580549  0.50354997  0.76638268     1.88900
O1388       O  0.48926543  0.01244252  0.85750685    -0.73000
O1389       O  0.53557129  0.12623368  0.76231338    -0.52300
O1390       O  0.94198981  0.04363416  0.76454013    -0.97000
O1391       O  0.90032101  0.43990243  0.76976687    -0.54200
O1392       O  0.93871904  0.49922888  0.82061806    -0.73600
C1393       C  0.95173041  0.50352659  0.84990583     0.98800
O1394       O  0.61273728  0.04362320  0.86086632    -0.62400
O1395       O  0.56309451  0.42088993  0.76219715    -0.57200
O1396       O  0.53574714  0.47170596  0.85846715    -0.93900
O1397       O  0.53017750  0.43187798  0.82123524    -0.92300
O1398       O  0.66331899  0.00850852  0.75093102    -0.92700
O1399       O  0.68925450  0.05309478  0.79899853    -0.91400
C1400       C  0.53111482  0.44099240  0.85081234     1.17600
H1401       H  0.59256484  0.98782010  0.71761527     0.33600
H1402       H  0.63269899  0.09357785  0.80464027     0.44400
H1403       H  0.47516550  0.45695095  0.81308762     0.37900
H1404       H  0.50832479  0.06019396  0.71736965     0.34400
H1405       H  0.72361113  0.11447710  0.75123906     0.26200
H1406       H  0.52798490  0.12437988  0.78545540     0.32200
H1407       H  0.94775918  0.55680734  0.78420568     0.38100
H1408       H  0.68720381  0.02288111  0.73498427     0.32500
H1409       H  0.57199817  0.42383657  0.73926296     0.31400
H1410       H  0.46428715  0.37758878  0.78639925     0.33100
H1411       H  0.88059630  0.44157111  0.78401982     0.32000
H1412       H  0.68952634  0.06831198  0.81644240     0.36000
H1413       H  0.62347292  0.02899838  0.85278921     0.28800
H1414       H  0.46887847  0.98077291  0.66854956     0.33000
H1415       H  0.88919294  0.48389863  0.73280274     0.36500
H1416       H  0.59034822  0.43681850  0.77380937     0.28500
H1417       H  0.63579269  0.07014184  0.85491369     0.41300
H1418       H  0.63154761  0.17926889  0.74689064     0.31400
H1419       H  0.69381960  0.12887623  0.75292565     0.39000
H1420       H  0.90780686  0.42457574  0.78255938     0.30900
H1421       H  0.04425838  0.14472403  0.75077292     0.30900
H1422       H  0.98336875  0.02393887  0.66419836     0.31200
N1423       N  0.69744257  0.08290274  0.62141315    -0.03300
C1424       C  0.74056939  0.10651463  0.61493492    -0.00700
C1425       C  0.76289793  0.12465871  0.64202816    -0.23600
C1426       C  0.73336994  0.11232182  0.66626322    -0.23800
C1427       C  0.69331903  0.08652870  0.65359849    -0.00800
H1428       H  0.79727866  0.14456467  0.64393197     0.13000
H1429       H  0.74065605  0.12099556  0.69097558     0.13000
N1430       N  0.57895788  0.13665345  0.61600713    -0.03300
C1431       C  0.58025322  0.16785380  0.60595211    -0.00700
C1432       C  0.59577586  0.19344089  0.63010511    -0.23600
C1433       C  0.60198399  0.17699030  0.65645805    -0.23800
C1434       C  0.59027911  0.14155498  0.64796863    -0.00800
H1435       H  0.59643095  0.21890847  0.63016280     0.13000
H1436       H  0.60984173  0.18824832  0.68035919     0.13000
C1437       C  0.96766068  0.19626903  0.54238085     0.03300
C1438       C  0.92279397  0.17009411  0.53972446    -0.12900
C1439       C  0.89414549  0.17971274  0.54811199     0.00800
C1440       C  0.91206981  0.21773889  0.55507268    -0.11400
C1441       C  0.95630250  0.24593032  0.55206304     0.03300
C1442       C  0.98391184  0.23444343  0.54673559    -0.10800
H1443       H  0.91080598  0.14179829  0.53315820     0.08900
H1444       H  0.89162443  0.22541083  0.56466660     0.06400
H1445       H  0.51992030  0.25643649  0.54537984     0.06300
N1446       N  0.50684157  0.40593772  0.62563013    -0.03300
C1447       C  0.49100631  0.36908317  0.62019120    -0.00700
C1448       C  0.47528100  0.34702847  0.64819259    -0.23600
C1449       C  0.48199494  0.37034591  0.67218439    -0.23800
C1450       C  0.50184714  0.40651395  0.65850576    -0.00800
H1451       H  0.46229823  0.31728125  0.65105266     0.13000
H1452       H  0.47437050  0.36175598  0.69747506     0.13000
C1453       C  0.95760215  0.33246470  0.57083847    -0.09000
C1454       C  0.49556906  0.35291419  0.59085254     0.07200
C1455       C  0.52380009  0.34149319  0.59182943    -0.02800
C1456       C  0.51352614  0.30929642  0.57592154    -0.07200
C1457       C  0.97312055  0.28580938  0.56022550     0.06300
C1458       C  0.94957313  0.30175275  0.55347927    -0.02200
Br1459     Br  0.90640353  0.28306830  0.52088769    -0.01900
H1460       H  0.93547614  0.34082261  0.56911450     0.10200
H1461       H  0.53282956  0.29848301  0.58092308     0.08300
Br1462     Br  0.57328367  0.36605961  0.61882081    -0.02400
C1463       C  0.97994995  0.15189400  0.57200054    -0.09000
C1464       C  0.99571845  0.18255381  0.54967526     0.07200
C1465       C  0.53777315  0.20041572  0.53913141    -0.02800
C1466       C  0.56505086  0.19279955  0.55563415    -0.07200
C1467       C  0.54991174  0.16726937  0.58252511     0.06300
C1468       C  0.00716592  0.14428132  0.58774187    -0.02200
Br1469     Br  0.98182695  0.10454110  0.62065266    -0.01900
H1470       H  0.94675510  0.13567676  0.57975922     0.10200
H1471       H  0.59846935  0.20788301  0.54825576     0.08300
Br1472     Br  0.55988968  0.23354464  0.50136799    -0.02400
C1473       C  0.81932193  0.16403320  0.54919797    -0.09000
C1474       C  0.84624540  0.15116283  0.55337606     0.07200
C1475       C  0.82734998  0.11456215  0.56838568    -0.02800
C1476       C  0.78629549  0.09571590  0.58271257    -0.07200
C1477       C  0.76446111  0.11314918  0.58449335     0.06300
C1478       C  0.78017740  0.14665281  0.56606876    -0.02200
Br1479     Br  0.75368824  0.17355962  0.56863423    -0.01900
H1480       H  0.83103413  0.19047643  0.53610715     0.10200
H1481       H  0.77435294  0.06985814  0.59693808     0.08300
Br1482     Br  0.85567393  0.08954712  0.57591457    -0.02400
C1483       C  0.79133782  0.44586807  0.81316389    -0.09000
C1484       C  0.77064535  0.40889059  0.82654889     0.07200
C1485       C  0.79280996  0.40108767  0.84965194    -0.02800
C1486       C  0.83397352  0.42999567  0.85896865    -0.07200
C1487       C  0.85243286  0.46730954  0.84782635     0.06300
C1488       C  0.83115494  0.47513203  0.82441601    -0.02200
Br1489     Br  0.85302534  0.52584871  0.80995810    -0.01900
H1490       H  0.77509333  0.45257645  0.79551092     0.10200
H1491       H  0.84943241  0.42410409  0.87804222     0.08300
Br1492     Br  0.76663350  0.35418588  0.87439406    -0.02400
C1493       C  0.62835681  0.39296593  0.85581706    -0.09000
C1494       C  0.62062912  0.37409799  0.82693687     0.07200
C1495       C  0.58266228  0.36254333  0.80997310    -0.02800
C1496       C  0.55230181  0.36772400  0.82318290    -0.07200
C1497       C  0.55959076  0.38506073  0.85274577     0.06300
C1498       C  0.59861832  0.39873770  0.86857127    -0.02200
Br1499     Br  0.61137575  0.42240350  0.90942597    -0.01900
H1500       H  0.65680850  0.40165717  0.86959281     0.10200
H1501       H  0.52238496  0.35718126  0.81085548     0.08300
Br1502     Br  0.57052330  0.33979896  0.76883867    -0.02400
C1503       C  0.60993377  0.21449870  0.84592651    -0.09000
C1504       C  0.63836655  0.20630284  0.83440650     0.07200
C1505       C  0.66807732  0.22981636  0.80983995    -0.02800
C1506       C  0.67149345  0.26273917  0.79936710    -0.07200
C1507       C  0.64858281  0.27466945  0.81530936     0.06300
C1508       C  0.61663397  0.24940663  0.83850171    -0.02200
Br1509     Br  0.58866606  0.26331822  0.86742427    -0.01900
H1510       H  0.58792695  0.19707412  0.86559320     0.10200
H1511       H  0.69583072  0.28122852  0.78135843     0.08300
Br1512     Br  0.71022018  0.22204734  0.79471531    -0.02400
N1513       N  0.62175805  0.65081207  0.36698787    -0.03300
C1514       C  0.64788947  0.68819073  0.35825379    -0.00700
C1515       C  0.67500147  0.70858425  0.38295584    -0.23600
C1516       C  0.66472108  0.68378583  0.40837329    -0.23800
C1517       C  0.63162607  0.64861230  0.39871131    -0.00800
H1518       H  0.69646322  0.73899648  0.38365876     0.13000
H1519       H  0.67817409  0.69114294  0.43226939     0.13000
N1520       N  0.52374050  0.91196878  0.37672724    -0.03300
C1521       C  0.52346685  0.88106453  0.37041197    -0.00700
C1522       C  0.50214790  0.85368756  0.39474342    -0.23600
C1523       C  0.49095931  0.86875261  0.41777431    -0.23800
C1524       C  0.50604955  0.90523230  0.40713012    -0.00800
H1525       H  0.50095407  0.82801951  0.39784177     0.13000
H1526       H  0.47862586  0.85623958  0.44170422     0.13000
C1527       C  0.65109939  0.86592981  0.31422343     0.03300
C1528       C  0.69555356  0.89274183  0.31710863    -0.12900
C1529       C  0.72460814  0.88223920  0.31614300     0.00800
C1530       C  0.70853732  0.84444342  0.31088005    -0.11400
C1531       C  0.66404026  0.81671200  0.30961280     0.03300
C1532       C  0.63589444  0.82817987  0.30948926    -0.10800
H1533       H  0.70721145  0.92149735  0.32229956     0.08900
H1534       H  0.73075334  0.83624416  0.30996405     0.06400
H1535       H  0.60173019  0.80711617  0.30841082     0.06300
N1536       N  0.92459798  0.00023197  0.37349267    -0.03300
C1537       C  0.88714183  0.99653464  0.36636634    -0.00700
C1538       C  0.87594919  0.01096116  0.39027585    -0.23600
C1539       C  0.90640889  0.02283939  0.41343791    -0.23800
C1540       C  0.93564373  0.01543605  0.40312732    -0.00800
H1541       H  0.84615747  0.00888797  0.39246223     0.13000
H1542       H  0.90513073  0.03266471  0.43679569     0.13000
Zr1543     Zr  0.55804753  0.52689339  0.44954239     2.17500
O1544       O  0.62284424  0.53481820  0.42834738    -0.51200
O1545       O  0.50040477  0.52258313  0.41781134    -0.74400
O1546       O  0.52970046  0.96739547  0.42110546    -0.81200
O1547       O  0.61077075  0.62679591  0.45307199    -0.82900
O1548       O  0.51246531  0.92356164  0.46146259    -0.78500
O1549       O  0.58994744  0.58300036  0.41510528    -0.90200
O1550       O  0.95167462  0.00921118  0.45610053    -0.76100
O1551       O  0.49742492  0.97558863  0.48209702    -0.85600
O1552       O  0.53229802  0.55734079  0.47849056    -0.85300
O1553       O  0.58442342  0.49838337  0.48413909    -0.72100
O1554       O  0.61653139  0.57286732  0.48145466    -0.84200
Zr1555     Zr  0.56192423  0.52729648  0.07697969     2.26400
Zr1556     Zr  0.52342799  0.94940590  0.01610242     2.06300
Zr1557     Zr  0.59212813  0.60253034  0.01016455     2.10000
Zr1558     Zr  0.97460004  0.00840461  0.01114371     1.78800
O1559       O  0.66396419  0.65989668  0.01360023    -0.93000
O1560       O  0.90891882  0.94524439  0.00821242    -0.40800
O1561       O  0.53380154  0.55503471  0.04355968    -0.77400
O1562       O  0.49827867  0.97958165  0.04624560    -0.96100
O1563       O  0.58475173  0.49524548  0.04747698    -0.89400
O1564       O  0.62024153  0.57590975  0.04424685    -0.92300
C1565       C  0.96475313  0.01445263  0.42666550     1.01500
C1566       C  0.60856533  0.61709730  0.42343497     1.14400
C1567       C  0.51610749  0.93394017  0.43119613     1.05200
O1568       O  0.45112499  0.89195940  0.01825524    -0.94400
O1569       O  0.51405417  0.92370997  0.07156220    -0.90200
O1570       O  0.53832416  0.96900422  0.10838548    -0.83300
C1571       C  0.52149124  0.93459614  0.10091115     1.11800
O1572       O  0.68171042  0.53648244  0.47517718    -0.96400
Zr1573     Zr  0.64373026  0.54353239  0.01580274     1.88900
O1574       O  0.62802959  0.54891207  0.10581704    -0.73000
O1575       O  0.55367858  0.91238003  0.01396854    -0.52300
O1576       O  0.65970195  0.49783589  0.03224175    -0.97000
O1577       O  0.71171670  0.60217318  0.00064160    -0.54200
O1578       O  0.67874002  0.56393279  0.06799689    -0.73600
C1579       C  0.66706680  0.56303683  0.09730896     0.98800
O1580       O  0.50844631  0.51315578  0.11690288    -0.62400
O1581       O  0.56382462  0.64099766  0.00269984    -0.57200
O1582       O  0.57630740  0.58259718  0.10399441    -0.93900
O1583       O  0.58785715  0.62414043  0.06322570    -0.92300
O1584       O  0.94990407  0.54941057  0.01584621    -0.92700
O1585       O  0.92734462  0.99858295  0.05585181    -0.91400
C1586       C  0.58287661  0.61392521  0.09351315     1.17600
H1587       H  0.52433285  0.57053959  0.46413421     0.33600
H1588       H  0.47522018  0.96095638  0.06048563     0.44400
H1589       H  0.64257187  0.59600924  0.05678724     0.37900
H1590       H  0.59414811  0.48593873  0.47177017     0.34400
H1591       H  0.88668204  0.94947451  0.00162780     0.26200
H1592       H  0.56657191  0.91476100  0.03539629     0.32200
H1593       H  0.68986795  0.51321373  0.03935290     0.38100
H1594       H  0.97139929  0.07141752  0.52317619     0.32500
H1595       H  0.54981918  0.63442386  0.98141370     0.31400
H1596       H  0.66068765  0.68036845  0.00656369     0.33100
H1597       H  0.73362298  0.60104461  0.01281417     0.32000
H1598       H  0.93152857  0.98409403  0.07270720     0.36000
H1599       H  0.98909388  0.52358182  0.10410047     0.28800
H1600       H  0.63989909  0.55935529  0.41624647     0.33000
H1601       H  0.70642639  0.53883637  0.48616671     0.35900
H1602       H  0.05423481  0.63661355  0.48240708     0.28500
H1603       H  0.98371979  0.98354055  0.11359187     0.41300
H1604       H  0.43731185  0.89389022  0.53588351     0.31400
H1605       H  0.91553453  0.93160630  0.49187263     0.39000
H1606       H  0.71059314  0.62195776  0.01099002     0.30900
H1607       H  0.52973608  0.88484083  0.51683866     0.30900
H1608       H  0.61410297  0.51463801  0.41308196     0.31200
Zr1609     Zr  0.55423039  0.52706217  0.19898583     2.17500
O1610       O  0.48317118  0.50708895  0.18043140    -0.51200
O1611       O  0.61971882  0.55102330  0.16663376    -0.74400
O1612       O  0.57256491  0.58160987  0.16561140    -0.81200
O1613       O  0.51459700  0.92913166  0.21153095    -0.82900
O1614       O  0.59330912  0.62572775  0.20320315    -0.78500
O1615       O  0.53281255  0.97153487  0.16974602    -0.90200
O1616       O  0.66753569  0.56311679  0.20586479    -0.76100
O1617       O  0.61161233  0.57607337  0.22889284    -0.85600
O1618       O  0.58274618  0.49909542  0.23108730    -0.85300
O1619       O  0.52483725  0.55342436  0.23041727    -0.72100
O1620       O  0.49712232  0.97773526  0.23455119    -0.84200
Zr1621     Zr  0.55313680  0.52788107  0.32685461     2.26400
Zr1622     Zr  0.58288651  0.60223675  0.26003731     2.06300
Zr1623     Zr  0.52981070  0.95344274  0.26619038     2.10000
Zr1624     Zr  0.63965499  0.54817638  0.26046767     1.78800
O1625       O  0.46482195  0.88974231  0.27008310    -0.93000
O1626       O  0.70668936  0.61059037  0.26219749    -0.40800
O1627       O  0.58337317  0.50204913  0.29596097    -0.77400
O1628       O  0.61179627  0.57492004  0.29255770    -0.96100
O1629       O  0.52533061  0.55621717  0.29498033    -0.89400
O1630       O  0.49643107  0.97507754  0.29859418    -0.92300
C1631       C  0.65792199  0.56346253  0.17616234     1.01500
C1632       C  0.51805727  0.93809554  0.18099915     1.14400
C1633       C  0.58781194  0.61538577  0.17360082     1.05200
O1634       O  0.65024660  0.66320601  0.25074229    -0.94400
O1635       O  0.60344332  0.63157138  0.31329075    -0.90200
O1636       O  0.58019685  0.58673827  0.35367482    -0.83300
C1637       C  0.59955904  0.62133111  0.34362095     1.11800
O1638       O  0.91849008  0.99091295  0.22250322    -0.96400
Zr1639     Zr  0.96781493  0.00285233  0.26621482     1.88900
O1640       O  0.48971188  0.51282861  0.35694097    -0.73000
O1641       O  0.54468270  0.63254816  0.26021180    -0.52300
O1642       O  0.94318562  0.54459296  0.26497128    -0.97000
O1643       O  0.90548990  0.93753332  0.26739381    -0.54200
O1644       O  0.93913432  0.99596366  0.32004262    -0.73600
C1645       C  0.95276638  0.00185406  0.34910067     0.98800
O1646       O  0.60998709  0.54243073  0.36337130    -0.62400
O1647       O  0.57196455  0.92683083  0.26412375    -0.57200
O1648       O  0.53735169  0.97107929  0.35921870    -0.93900
O1649       O  0.52850050  0.93009917  0.32184552    -0.92300
O1650       O  0.66259215  0.50605284  0.25402326    -0.92700
O1651       O  0.68553724  0.55260808  0.30426634    -0.91400
C1652       C  0.53077561  0.93955800  0.35147773     1.17600
H1653       H  0.59320114  0.48799683  0.21762890     0.33600
H1654       H  0.63514110  0.59396478  0.30526782     0.44400
H1655       H  0.47531359  0.95519292  0.31318491     0.37900
H1656       H  0.51379587  0.56433062  0.21633215     0.34400
H1657       H  0.72905816  0.60699842  0.25509451     0.26200
H1658       H  0.53206170  0.62713870  0.28225323     0.32200
H1659       H  0.95210489  0.05708283  0.28584460     0.38100
H1660       H  0.69249558  0.52261180  0.24568221     0.32500
H1661       H  0.58865406  0.93693520  0.24361353     0.31400
H1662       H  0.47507626  0.87320859  0.26808557     0.33100
H1663       H  0.88671321  0.93566607  0.28498670     0.32000
H1664       H  0.68763666  0.57135551  0.31873321     0.36000
H1665       H  0.62080356  0.52770143  0.35572417     0.28800
H1666       H  0.47119515  0.48404343  0.16808262     0.33000
H1667       H  0.89044253  0.98122780  0.23301376     0.36500
H1668       H  0.59362071  0.93955494  0.28115906     0.28500
H1669       H  0.63368791  0.56894819  0.35811965     0.41300
H1670       H  0.66684797  0.65855771  0.23569290     0.31400
H1671       H  0.70493927  0.62541698  0.24418248     0.39000
H1672       H  0.91613489  0.92241841  0.27560789     0.30900
H1673       H  0.05079904  0.64855334  0.25341587     0.30900
H1674       H  0.98231859  0.52180374  0.16513848     0.31200
N1675       N  0.70015963  0.58113105  0.12131379    -0.03300
C1676       C  0.74344398  0.60390133  0.11512612    -0.00700
C1677       C  0.76603919  0.61928467  0.14283152    -0.23600
C1678       C  0.73662806  0.60599987  0.16722885    -0.23800
C1679       C  0.69626273  0.58263895  0.15403366    -0.00800
H1680       H  0.80053913  0.63807515  0.14499306     0.13000
H1681       H  0.74416871  0.61288535  0.19231376     0.13000
N1682       N  0.58630155  0.64028137  0.11634884    -0.03300
C1683       C  0.58696518  0.67123156  0.10688747    -0.00700
C1684       C  0.60306228  0.69684122  0.13102312    -0.23600
C1685       C  0.61007064  0.68040446  0.15694304    -0.23800
C1686       C  0.59798806  0.64494400  0.14814080    -0.00800
H1687       H  0.60358356  0.72222372  0.13146944     0.13000
H1688       H  0.61824404  0.69148991  0.18090081     0.13000
C1689       C  0.97078720  0.69795774  0.04133732     0.03300
C1690       C  0.92601681  0.67155905  0.03884081    -0.12900
C1691       C  0.89707569  0.68082136  0.04732852     0.00800
C1692       C  0.91488243  0.71893086  0.05411286    -0.11400
C1693       C  0.95904742  0.74737199  0.05055539     0.03300
C1694       C  0.98681313  0.73612895  0.04488547    -0.10800
H1695       H  0.91463238  0.64347372  0.03226003     0.08900
H1696       H  0.89454456  0.72648379  0.06411522     0.06400
H1697       H  0.52151166  0.75563724  0.04797708     0.06300
N1698       N  0.50851755  0.90567973  0.12635417    -0.03300
C1699       C  0.49302291  0.86890203  0.12095326    -0.00700
C1700       C  0.47736846  0.84682266  0.14894432    -0.23600
C1701       C  0.48388452  0.87006874  0.17291793    -0.23800
C1702       C  0.50345905  0.90619112  0.15920713    -0.00800
H1703       H  0.46453966  0.81710692  0.15179836     0.13000
H1704       H  0.47626563  0.86146051  0.19820595     0.13000
C1705       C  0.96065813  0.83368592  0.07092989    -0.09000
C1706       C  0.49768666  0.85277142  0.09166283     0.07200
C1707       C  0.52601194  0.84144247  0.09293044    -0.02800
C1708       C  0.51521352  0.80845802  0.07825396    -0.07200
C1709       C  0.97594059  0.78722611  0.05886570     0.06300
C1710       C  0.95195081  0.80296670  0.05326049    -0.02200
Br1711     Br  0.90736082  0.78420041  0.02183351    -0.01900
H1712       H  0.93843720  0.84198149  0.07014025     0.10200
H1713       H  0.53471981  0.79789748  0.08353909     0.08300
Br1714     Br  0.57618431  0.86700159  0.11914020    -0.02400
C1715       C  0.98322180  0.65578400  0.07431277    -0.09000
C1716       C  0.99873397  0.68457446  0.05012533     0.07200
C1717       C  0.54229471  0.70327011  0.04185473    -0.02800
C1718       C  0.57077131  0.69733406  0.05838392    -0.07200
C1719       C  0.55614659  0.67024936  0.08390978     0.06300
C1720       C  0.01034772  0.64840337  0.09048455    -0.02200
Br1721     Br  0.98552625  0.61111433  0.12542704    -0.01900
H1722       H  0.95031711  0.64082419  0.08280361     0.10200
H1723       H  0.60461147  0.71467771  0.05196303     0.08300
Br1724     Br  0.56446884  0.73808587  0.00516837    -0.02400
C1725       C  0.82193286  0.66455703  0.05018977    -0.09000
C1726       C  0.84919786  0.65187796  0.05300334     0.07200
C1727       C  0.83040459  0.61457772  0.06653555    -0.02800
C1728       C  0.78961654  0.59515675  0.08138216    -0.07200
C1729       C  0.76734012  0.61205592  0.08439449     0.06300
C1730       C  0.78259711  0.64607688  0.06697176    -0.02200
Br1731     Br  0.75476987  0.67175625  0.07030382    -0.01900
H1732       H  0.83313646  0.69126393  0.03781321     0.10200
H1733       H  0.77786519  0.56874692  0.09463422     0.08300
Br1734     Br  0.85746901  0.58800974  0.07001951    -0.02400
C1735       C  0.79164630  0.94774524  0.31189240    -0.09000
C1736       C  0.77077601  0.91019847  0.32400273     0.07200
C1737       C  0.79304613  0.90150067  0.34625859    -0.02800
C1738       C  0.83450782  0.92982910  0.35563639    -0.07200
C1739       C  0.85329659  0.96754295  0.34570225     0.06300
C1740       C  0.83172937  0.97641134  0.32341441    -0.02200
Br1741     Br  0.85372140  0.02770535  0.31083455    -0.01900
H1742       H  0.77549043  0.95532722  0.29496653     0.10200
H1743       H  0.84997154  0.92307209  0.37402293     0.08300
Br1744     Br  0.76681328  0.85409602  0.37021050    -0.02400
C1745       C  0.62877903  0.89438710  0.35294867    -0.09000
C1746       C  0.62056087  0.87541024  0.32409915     0.07200
C1747       C  0.58137061  0.86216594  0.30830952    -0.02800
C1748       C  0.55041581  0.86581420  0.32270355    -0.07200
C1749       C  0.55838128  0.88336370  0.35224351     0.06300
C1750       C  0.59831054  0.89833454  0.36701862    -0.02200
Br1751     Br  0.61125219  0.92050187  0.40856606    -0.01900
H1752       H  0.65802760  0.90409043  0.36597436     0.10200
H1753       H  0.51973591  0.85416052  0.31123436     0.08300
Br1754     Br  0.56866235  0.83951001  0.26706420    -0.02400
C1755       C  0.60907886  0.71642256  0.34492400    -0.09000
C1756       C  0.63784950  0.70819105  0.33427809     0.07200
C1757       C  0.66789323  0.73138004  0.30979675    -0.02800
C1758       C  0.67086889  0.76373966  0.29818099    -0.07200
C1759       C  0.64783458  0.77598848  0.31336039     0.06300
C1760       C  0.61567871  0.75114423  0.33665876    -0.02200
Br1761     Br  0.58737366  0.76548451  0.36480652    -0.01900
H1762       H  0.58687980  0.69931970  0.36460032     0.10200
H1763       H  0.69528343  0.78183714  0.28008963     0.08300
Br1764     Br  0.71147375  0.72452434  0.29670951    -0.02400
N1765       N  0.62269164  0.65028429  0.86720737    -0.03300
C1766       C  0.65000199  0.68750329  0.85827552    -0.00700
C1767       C  0.67784183  0.70740508  0.88280428    -0.23600
C1768       C  0.66673982  0.68254976  0.90832529    -0.23800
C1769       C  0.63250057  0.64780633  0.89887193    -0.00800
H1770       H  0.70034451  0.73772407  0.88340795     0.13000
H1771       H  0.68053104  0.68966016  0.93213546     0.13000
N1772       N  0.52460251  0.91296083  0.87729696    -0.03300
C1773       C  0.52409362  0.88184168  0.87134165    -0.00700
C1774       C  0.50140741  0.85432783  0.89533931    -0.23600
C1775       C  0.48940345  0.86945444  0.91773170    -0.23800
C1776       C  0.50539186  0.90611643  0.90708019    -0.00800
H1777       H  0.49930035  0.82825697  0.89861659     0.13000
H1778       H  0.47566052  0.85674259  0.94135367     0.13000
C1779       C  0.65156579  0.86558503  0.81511977     0.03300
C1780       C  0.69604377  0.89283954  0.81751203    -0.12900
C1781       C  0.72550785  0.88276574  0.81649980     0.00800
C1782       C  0.70989483  0.84500803  0.81164987    -0.11400
C1783       C  0.66550501  0.81685345  0.81072943     0.03300
C1784       C  0.63689337  0.82788007  0.81063691    -0.10800
H1785       H  0.70745126  0.92161199  0.82240164     0.08900
H1786       H  0.73249752  0.83722831  0.81083033     0.06400
H1787       H  0.60282301  0.80659052  0.80957023     0.06300
N1788       N  0.92481764  0.00235999  0.87404714    -0.03300
C1789       C  0.88721661  0.99833452  0.86673678    -0.00700
C1790       C  0.87523254  0.01186195  0.89090901    -0.23600
C1791       C  0.90527943  0.02336957  0.91441166    -0.23800
C1792       C  0.93511318  0.01667178  0.90404701    -0.00800
H1793       H  0.84506910  0.00915240  0.89307709     0.13000
H1794       H  0.90323509  0.03232916  0.93799142     0.13000
Zr1795     Zr  0.55835858  0.52628782  0.94978388     2.17500
O1796       O  0.62454901  0.53705443  0.92852002    -0.51200
O1797       O  0.50010463  0.52006214  0.91802811    -0.74400
O1798       O  0.52801589  0.96820049  0.92090386    -0.81200
O1799       O  0.61199476  0.62633688  0.95328606    -0.82900
O1800       O  0.51166167  0.92467186  0.96131138    -0.78500
O1801       O  0.58919180  0.58225184  0.91533959    -0.90200
O1802       O  0.95152849  0.01060920  0.95712022    -0.76100
O1803       O  0.49645737  0.97667311  0.98175897    -0.85600
O1804       O  0.53386410  0.55761952  0.97907488    -0.85300
O1805       O  0.58489802  0.49748498  0.98362549    -0.72100
O1806       O  0.61742185  0.57205079  0.98117744    -0.84200
Zr1807     Zr  0.55882310  0.52741019  0.57677632     2.26400
Zr1808     Zr  0.52440710  0.94829856  0.51626412     2.06300
Zr1809     Zr  0.58968752  0.60260969  0.50985885     2.10000
Zr1810     Zr  0.97377800  0.00789389  0.51058011     1.78800
O1811       O  0.66101314  0.65994464  0.51577053    -0.93000
O1812       O  0.90847128  0.94455997  0.50713224    -0.40800
O1813       O  0.53071457  0.55458494  0.54254675    -0.77400
O1814       O  0.49861893  0.97789300  0.54631976    -0.96100
O1815       O  0.58307108  0.49584519  0.54815099    -0.89400
O1816       O  0.61725401  0.57606501  0.54426511    -0.92300
C1817       C  0.96414010  0.01542596  0.92757749     1.01500
C1818       C  0.60887773  0.61644650  0.92364047     1.14400
C1819       C  0.51500114  0.93486908  0.93103626     1.05200
O1820       O  0.45142553  0.89176315  0.51688751    -0.94400
O1821       O  0.51276947  0.92194955  0.57192785    -0.90200
O1822       O  0.53865779  0.96730885  0.60882196    -0.83300
C1823       C  0.52040599  0.93275328  0.60135437     1.11800
O1824       O  0.68658577  0.54148798  0.97324674    -0.96400
Zr1825     Zr  0.64226714  0.54423810  0.51678544     1.88900
O1826       O  0.62565247  0.55164526  0.60556587    -0.73000
O1827       O  0.55487742  0.91141409  0.51499959    -0.52300
O1828       O  0.65839825  0.49983222  0.53744839    -0.97000
O1829       O  0.71073698  0.60199498  0.50096586    -0.54200
O1830       O  0.67727930  0.56720699  0.56836368    -0.73600
C1831       C  0.66508291  0.56703021  0.59727007     0.98800
O1832       O  0.50294422  0.51155067  0.61517232    -0.62400
O1833       O  0.56061118  0.64027496  0.50080107    -0.57200
O1834       O  0.57234106  0.58255038  0.60372696    -0.93900
O1835       O  0.58459238  0.62424968  0.56283868    -0.92300
O1836       O  0.95677377  0.55653492  0.50936843    -0.92700
O1837       O  0.92314894  0.99669439  0.55309494    -0.91400
C1838       C  0.57914719  0.61396305  0.59317259     1.17600
H1839       H  0.52572755  0.57075014  0.96477341     0.33600
H1840       H  0.47549973  0.95900486  0.56037974     0.44400
H1841       H  0.63908716  0.59656381  0.55673437     0.37900
H1842       H  0.59416823  0.48494605  0.97084234     0.34400
H1843       H  0.88818850  0.94820457  0.49522704     0.26200
H1844       H  0.56958768  0.91573770  0.53587921     0.32200
H1845       H  0.68715106  0.51556393  0.54711045     0.38100
H1846       H  0.97407217  0.07437095  0.00891630     0.32500
H1847       H  0.54783935  0.63395605  0.47907746     0.31400
H1848       H  0.65647486  0.68046420  0.51458663     0.33100
H1849       H  0.73219829  0.60138566  0.51428947     0.32000
H1850       H  0.92085172  0.97682523  0.56762943     0.36000
H1851       H  0.99503430  0.52633147  0.60905697     0.28800
H1852       H  0.64024270  0.56131612  0.91592851     0.33000
H1853       H  0.67199394  0.51447422  0.96871486     0.35900
H1854       H  0.03681540  0.62941675  0.01407080     0.28500
H1855       H  0.98008752  0.98326619  0.61138713     0.41300
H1856       H  0.43381870  0.89857344  0.03016728     0.31400
H1857       H  0.91298734  0.93436480  0.98911354     0.39000
H1858       H  0.70941045  0.62235729  0.50981133     0.30900
H1859       H  0.52840828  0.88586247  0.01388728     0.30900
H1860       H  0.61653218  0.51680132  0.91353185     0.31200
Zr1861     Zr  0.55126262  0.52710034  0.69892174     2.17500
O1862       O  0.48031767  0.50650314  0.67969389    -0.51200
O1863       O  0.61672376  0.55467107  0.66595360    -0.74400
O1864       O  0.56820252  0.58131488  0.66559598    -0.81200
O1865       O  0.51228646  0.92751588  0.71204562    -0.82900
O1866       O  0.58817579  0.62501072  0.70350731    -0.78500
O1867       O  0.53078728  0.96974703  0.67005550    -0.90200
O1868       O  0.66686697  0.57084649  0.70424555    -0.76100
O1869       O  0.60793735  0.57705611  0.72848285    -0.85600
O1870       O  0.58262028  0.50091526  0.73001578    -0.85300
O1871       O  0.52024008  0.55154007  0.73113370    -0.72100
O1872       O  0.49507709  0.97682583  0.73464379    -0.84200
Zr1873     Zr  0.55329573  0.52762674  0.82677689     2.26400
Zr1874     Zr  0.57758119  0.60110435  0.76068573     2.06300
Zr1875     Zr  0.52631128  0.95172430  0.76686152     2.10000
Zr1876     Zr  0.63925497  0.55117202  0.75864454     1.78800
O1877       O  0.45567867  0.89288057  0.77363929    -0.93000
O1878       O  0.70098002  0.61605862  0.76329706    -0.40800
O1879       O  0.58518677  0.50368872  0.79500243    -0.77400
O1880       O  0.60991340  0.57570479  0.79182695    -0.96100
O1881       O  0.52214957  0.55374294  0.79603359    -0.89400
O1882       O  0.49509838  0.97548028  0.79882134    -0.92300
C1883       C  0.65582615  0.57049349  0.67489567     1.01500
C1884       C  0.51581378  0.93634774  0.68145610     1.14400
C1885       C  0.58286279  0.61493128  0.67372286     1.05200
O1886       O  0.63649791  0.66690541  0.75255888    -0.94400
O1887       O  0.60141842  0.63082907  0.81379731    -0.90200
O1888       O  0.58125273  0.58628095  0.85397575    -0.83300
C1889       C  0.59944764  0.62076089  0.84401389     1.11800
O1890       O  0.91199776  0.98258684  0.72476186    -0.96400
Zr1891     Zr  0.96529065  0.00115161  0.76675537     1.88900
O1892       O  0.49050720  0.51404314  0.85704482    -0.73000
O1893       O  0.52846482  0.62029976  0.76526375    -0.52300
O1894       O  0.94166778  0.54540752  0.76282934    -0.97000
O1895       O  0.89947455  0.93777046  0.77270420    -0.54200
O1896       O  0.93890527  0.99683753  0.82090653    -0.73600
C1897       C  0.95277211  0.00323352  0.84987315     0.98800
O1898       O  0.61126902  0.54294644  0.86260667    -0.62400
O1899       O  0.55925649  0.91686993  0.76469059    -0.57200
O1900       O  0.53679286  0.97121546  0.85925284    -0.93900
O1901       O  0.52864658  0.93007878  0.82228481    -0.92300
O1902       O  0.66769673  0.51436703  0.74597486    -0.92700
O1903       O  0.68969127  0.55630012  0.79871631    -0.91400
C1904       C  0.53098586  0.93992646  0.85176868     1.17600
H1905       H  0.59352386  0.49050334  0.71616098     0.33600
H1906       H  0.63333804  0.59502473  0.80429315     0.44400
H1907       H  0.47415962  0.95612866  0.81384430     0.37900
H1908       H  0.50788444  0.56169130  0.71756940     0.34400
H1909       H  0.72368428  0.61817424  0.74965204     0.26200
H1910       H  0.54633069  0.64632126  0.77298180     0.32200
H1911       H  0.95079955  0.05640174  0.78535290     0.38100
H1912       H  0.69726264  0.53318168  0.73776494     0.32500
H1913       H  0.56897244  0.91972956  0.74199559     0.31400
H1914       H  0.46137516  0.87466593  0.78306640     0.33100
H1915       H  0.88202259  0.93914680  0.78954565     0.32000
H1916       H  0.68853617  0.57076676  0.81620023     0.36000
H1917       H  0.62011551  0.52629858  0.85630545     0.28800
H1918       H  0.46919476  0.48368668  0.66719568     0.33000
H1919       H  0.88821892  0.98245600  0.73481035     0.36500
H1920       H  0.58614228  0.93206505  0.77689127     0.28500
H1921       H  0.63574294  0.56849665  0.85550061     0.41300
H1922       H  0.62264778  0.68069167  0.75066118     0.31400
H1923       H  0.69278503  0.63142158  0.75139943     0.39000
H1924       H  0.90825922  0.92198943  0.78282733     0.30900
H1925       H  0.03793347  0.63721700  0.74136690     0.30900
H1926       H  0.98575312  0.52630887  0.66510551     0.31200
N1927       N  0.69790914  0.58889493  0.62057335    -0.03300
C1928       C  0.74020398  0.61576478  0.61341122    -0.00700
C1929       C  0.76128165  0.63679720  0.63976862    -0.23600
C1930       C  0.73177431  0.62281564  0.66425938    -0.23800
C1931       C  0.69307226  0.59346918  0.65234992    -0.00800
H1932       H  0.79507206  0.65911061  0.64125381     0.13000
H1933       H  0.73819527  0.63266517  0.68864948     0.13000
N1934       N  0.58216306  0.64024645  0.61598728    -0.03300
C1935       C  0.58293137  0.67125249  0.60630849    -0.00700
C1936       C  0.59790069  0.69646220  0.63074793    -0.23600
C1937       C  0.60403574  0.67976085  0.65697935    -0.23800
C1938       C  0.59265459  0.64451874  0.64814616    -0.00800
H1939       H  0.59821975  0.72175451  0.63106181     0.13000
H1940       H  0.61133881  0.69057904  0.68104502     0.13000
C1941       C  0.96774161  0.69611466  0.54199867     0.03300
C1942       C  0.92257284  0.67031646  0.54079771    -0.12900
C1943       C  0.89503071  0.68152785  0.54814302     0.00800
C1944       C  0.91416640  0.72003568  0.55354562    -0.11400
C1945       C  0.95841374  0.74739715  0.54941646     0.03300
C1946       C  0.98501561  0.73481704  0.54407967    -0.10800
H1947       H  0.90954941  0.64127073  0.53615307     0.08900
H1948       H  0.89458879  0.72865676  0.56307450     0.06400
H1949       H  0.51824464  0.75567974  0.54561980     0.06300
N1950       N  0.50597488  0.90368448  0.62692058    -0.03300
C1951       C  0.48920952  0.86669473  0.62161418    -0.00700
C1952       C  0.47265677  0.84461006  0.64953859    -0.23600
C1953       C  0.47967757  0.86809276  0.67344292    -0.23800
C1954       C  0.50062753  0.90432803  0.65972557    -0.00800
H1955       H  0.45872161  0.81468008  0.65238593     0.13000
H1956       H  0.47140852  0.85954440  0.69868538     0.13000
C1957       C  0.96264205  0.83489211  0.56956389    -0.09000
C1958       C  0.49310593  0.85027263  0.59234972     0.07200
C1959       C  0.52188255  0.83948435  0.59288390    -0.02800
C1960       C  0.51100675  0.80652999  0.57808646    -0.07200
C1961       C  0.97651512  0.78755038  0.55739889     0.06300
C1962       C  0.95350613  0.80423283  0.55161814    -0.02200
Br1963     Br  0.90820547  0.78582490  0.52078164    -0.01900
H1964       H  0.94103292  0.84384477  0.56858638     0.10200
H1965       H  0.53109971  0.79641340  0.58261435     0.08300
Br1966     Br  0.57323207  0.86627768  0.61777904    -0.02400
C1967       C  0.98034757  0.65379587  0.57498330    -0.09000
C1968       C  0.99545847  0.68226964  0.55049212     0.07200
C1969       C  0.53989885  0.70316924  0.53935095    -0.02800
C1970       C  0.56790085  0.69701019  0.55652051    -0.07200
C1971       C  0.55272244  0.67045099  0.58262022     0.06300
C1972       C  0.00762598  0.64615205  0.59066215    -0.02200
Br1973     Br  0.98352777  0.60895717  0.62566736    -0.01900
H1974       H  0.94776463  0.63926504  0.58402897     0.10200
H1975       H  0.60178113  0.71390042  0.55024645     0.08300
Br1976     Br  0.56255286  0.73819330  0.50280264    -0.02400
C1977       C  0.82130280  0.66825146  0.54764294    -0.09000
C1978       C  0.84704514  0.65449301  0.55395403     0.07200
C1979       C  0.82718750  0.61904730  0.57120075    -0.02800
C1980       C  0.78616848  0.60209831  0.58514432    -0.07200
C1981       C  0.76523677  0.62045054  0.58419740     0.06300
C1982       C  0.78206069  0.65282471  0.56388569    -0.02200
Br1983     Br  0.75634067  0.68056584  0.56214405    -0.01900
H1984       H  0.83399384  0.69396087  0.53305864     0.10200
H1985       H  0.77344875  0.57720695  0.60093029     0.08300
Br1986     Br  0.85447859  0.59378335  0.58203819    -0.02400
C1987       C  0.79241631  0.94834075  0.81148621    -0.09000
C1988       C  0.77167021  0.91103014  0.82415315     0.07200
C1989       C  0.79396969  0.90286895  0.84686865    -0.02800
C1990       C  0.83525184  0.93150465  0.85625895    -0.07200
C1991       C  0.85374266  0.96906842  0.84598860     0.06300
C1992       C  0.83221948  0.97739932  0.82314861    -0.02200
Br1993     Br  0.85352959  0.02843268  0.81021631    -0.01900
H1994       H  0.77619968  0.95546060  0.79417962     0.10200
H1995       H  0.85070350  0.92513793  0.87497219     0.08300
Br1996     Br  0.76787631  0.85590170  0.87149572    -0.02400
C1997       C  0.62913594  0.89409515  0.85384166    -0.09000
C1998       C  0.62067217  0.87472639  0.82518276     0.07200
C1999       C  0.58110691  0.86101199  0.80976935    -0.02800
C2000       C  0.55038808  0.86505929  0.82414313    -0.07200
C2001       C  0.55877585  0.88335858  0.85334805     0.06300
C2002       C  0.59879904  0.89825447  0.86796517    -0.02200
Br2003     Br  0.61208970  0.92057787  0.90942383    -0.01900
H2004       H  0.65856272  0.90401809  0.86668492     0.10200
H2005       H  0.51955082  0.85319544  0.81286887     0.08300
Br2006     Br  0.56747683  0.83715580  0.76904381    -0.02400
C2007       C  0.61160439  0.71637148  0.84571479    -0.09000
C2008       C  0.64045770  0.70834614  0.83485481     0.07200
C2009       C  0.67059539  0.73186489  0.81055658    -0.02800
C2010       C  0.67380918  0.76453319  0.79951651    -0.07200
C2011       C  0.65008462  0.77625171  0.81453840     0.06300
C2012       C  0.61755654  0.75083651  0.83740924    -0.02200
Br2013     Br  0.58668475  0.76353585  0.86446490    -0.01900
H2014       H  0.58920158  0.69890372  0.86517463     0.10200
H2015       H  0.69829315  0.78285275  0.78154611     0.08300
Br2016     Br  0.71267132  0.72376096  0.79590182    -0.02400
loop_ 
_geom_bond_atom_site_label_1 
_geom_bond_atom_site_label_2 
_geom_bond_distance 
_geom_bond_site_symmetry_2 
_ccdc_geom_bond_type 
N1            C5   1.378       .  A
N1            C2   1.361       .  A
N1          C125   1.459       .  S
C2            C3   1.380       .  A
C2          C244   1.472       .  S
C3            C4   1.362       .  A
C3            H6   1.083       .  S
C4            C5   1.383       .  A
C4            H7   1.083       .  S
C5           C54   1.491       .  S
N8           C12   1.373       .  A
N8            C9   1.360       .  A
N8          C140   1.457       .  S
C9           C10   1.379   1_455  A
C9          C237   1.479       .  S
C10          C11   1.370       .  A
C10          H13   1.083       .  S
C11          C12   1.387   1_655  A
C11          H14   1.083       .  S
C12          C55   1.494       .  S
C15          C16   1.409       .  A
C15          C20   1.408       .  A
C15         C234   1.493       .  S
C16          C17   1.404       .  A
C16          H21   1.084       .  S
C17          C18   1.402       .  A
C17         C224   1.492       .  S
C18          C19   1.408       .  A
C18          H22   1.082       .  S
C19          C20   1.407       .  A
C19         C247   1.497       .  S
C20          H23   1.080       .  S
N24          C28   1.361       .  A
N24          C25   1.362       .  A
N24         C133   1.445       .  S
C25          C26   1.378       .  A
C25         C227   1.476       .  S
C26          C27   1.366       .  A
C26          H29   1.083       .  S
C27          C28   1.388       .  A
C27          H30   1.083       .  S
C28          C53   1.484       .  S
Zr31         O32   2.438       .  S
Zr31         O33   2.447       .  S
Zr31         O37   2.409       .  S
Zr31        O538   2.408   1_545  S
Zr31         O40   2.386       .  S
Zr31         O41   2.405   1_545  S
Zr31         O42   2.393       .  S
Zr31        O543   2.379   1_445  S
O32          H88   0.988       .  S
O32          H96   0.988       .  S
O33        C1565   1.287   1_455  A
O34        Zr535   2.412       .  S
O34          C55   1.278       .  A
O35        Zr297   2.478       .  S
O35          C54   1.298       .  A
O36        Zr296   2.475       .  S
O36          C55   1.296       .  A
O37          C54   1.278       .  A
O38        Zr298   2.413       .  S
O38          C53   1.283       .  A
O39        Zr535   2.382   1_655  S
O39        Zr296   2.381   1_655  S
O39       Zr1306   2.372       .  S
O40        Zr297   2.360       .  S
O40       Zr1810   2.376   1_455  S
O40          H75   0.966       .  S
O41        Zr800   2.369       .  S
O41        Zr313   2.405   1_565  S
O41          H78   0.965       .  S
O42        Zr297   2.372       .  S
O42        Zr313   2.410       .  S
Zr43         O68   2.406       .  S
Zr43         O62   2.433       .  S
Zr43         O70   2.439       .  S
Zr43        O562   2.452   1_545  S
Zr43         O49   2.400       .  S
Zr43         O51   2.378   1_545  S
Zr43         O52   2.385       .  S
Zr43        O554   2.405   1_545  S
Zr44         O63   2.434       .  S
Zr44         O56   2.433   1_455  S
Zr44         O57   2.445       .  S
Zr44        O288   2.472   1_554  S
Zr44         O50   2.378       .  S
Zr44        O291   2.375   1_454  S
Zr44        O797   2.366   1_554  S
Zr44        O555   2.395       .  S
Zr45         O47   2.435       .  S
Zr45         O69   2.434       .  S
Zr45         O71   2.467       .  S
Zr45        O287   2.483   1_554  S
Zr45         O49   2.389       .  S
Zr45         O52   2.371       .  S
Zr45        O292   2.363   1_554  S
Zr45        O294   2.371   1_554  S
Zr46         O73   2.438       .  S
Zr46         O48   2.436       .  S
Zr46        O576   2.439       .  S
Zr46        O290   2.416   1_554  S
Zr46       O1299   2.368   1_554  S
Zr46       O1804   2.371   1_554  S
Zr46       O1561   2.385       .  S
Zr46       O1058   2.391       .  S
O47          H84   0.990       .  S
O48          H79   0.990   1_554  S
O48         H345   0.990   1_554  S
O49       Zr1558   2.387   1_455  S
O50        Zr547   2.398       .  S
O50       Zr1054   2.391   1_455  S
O50          H76   0.964   1_455  S
O51         Zr61   2.371   1_565  S
O51        Zr548   2.397       .  S
O52         Zr61   2.378       .  S
O52          H77   0.964       .  S
C53        O1545   1.289       .  A
O56         H344   0.990       .  S
O57          C59   1.289       .  A
O58        Zr547   2.463       .  S
O58          C59   1.290       .  A
C59         N186   1.458       .  S
O60        Zr313   2.441       .  S
O60          H89   0.990       .  S
Zr61         O64   2.436   1_545  S
Zr61         O65   2.436       .  S
Zr61        O312   2.441   1_554  S
Zr61         O66   2.444       .  S
Zr61        O293   2.409   1_544  S
Zr61        O294   2.404   1_554  S
O62          C67   1.283       .  A
O63          H80   0.990       .  S
O63         H347   0.990       .  S
O64          H81   0.990   1_565  S
O65          H85   0.990       .  S
O65          H94   0.989       .  S
O66          C67   1.287       .  A
C67         N163   1.445       .  S
O68        H1095   0.990   1_455  S
O68        H1603   0.990   1_445  S
O69          H83   0.990   1_554  S
O69        H1350   0.989       .  S
O70          C74   1.284       .  A
O71          C74   1.295       .  A
O72        Zr550   2.436       .  S
O72         H838   0.990   1_554  S
O73          H86   0.990       .  S
C74         N170   1.454       .  S
H82         O828   0.990       .  S
H87        O1076   0.991       .  S
H90        O1329   0.990       .  S
H91        O1580   0.990       .  S
H92         O308   0.990       .  S
H93         O300   0.990       .  S
H95         O315   0.990       .  S
Zr97         O98   2.437   1_455  S
Zr97         O99   2.452       .  S
Zr97        O100   2.420       .  S
Zr97        O607   2.427   1_545  S
Zr97        O105   2.380       .  S
Zr97        O106   2.392       .  S
Zr97        O107   2.407       .  S
Zr97        O612   2.397   1_445  S
O98         H154   0.988   1_545  S
O98        H1170   0.988       .  S
O99         C119   1.287       .  A
O100        C121   1.281       .  A
O101       Zr111   2.464       .  S
O101        C120   1.296       .  A
O102       Zr110   2.487       .  S
O102        C121   1.299       .  A
O103       Zr601   2.425       .  S
O103        C120   1.282       .  A
O104       Zr112   2.411       .  S
O104        C119   1.282       .  A
O105       Zr110   2.375       .  S
O105       Zr112   2.361       .  S
O106       Zr112   2.361       .  S
O106       Zr615   2.376   1_545  S
O106        H141   0.966   1_545  S
O107       Zr110   2.380       .  S
O107      Zr1639   2.404   1_455  S
O107        H144   0.966       .  S
O108       Zr111   2.379   1_655  S
O108       Zr601   2.402   1_655  S
O108      Zr1135   2.397       .  S
Zr109       O134   2.411       .  S
Zr109       O128   2.439   1_455  S
Zr109       O124   2.438       .  S
Zr109       O640   2.441   1_545  S
Zr109       O115   2.401       .  S
Zr109       O116   2.409       .  S
Zr109       O117   2.381       .  S
Zr109       O622   2.379   1_445  S
Zr110       O129   2.435       .  S
Zr110       O122   2.427       .  S
Zr110       O123   2.488       .  S
Zr110       O116   2.393       .  S
Zr110       O117   2.387       .  S
Zr111       O113   2.434   1_455  S
Zr111       O135   2.437       .  S
Zr111       O137   2.473       .  S
Zr111       O118   2.388   1_455  S
Zr111       O610   2.385       .  S
Zr111       O619   2.373       .  S
Zr112       O138   2.437       .  S
Zr112       O139   2.435       .  S
Zr112       O114   2.434       .  S
Zr112       O115   2.388       .  S
Zr112       O116   2.388       .  S
O113        H150   0.990       .  S
O114        H145   0.990       .  S
O114        H159   0.990       .  S
O115       Zr615   2.371   1_545  S
O116        H142   0.966       .  S
O117      Zr1639   2.377   1_455  S
O118       Zr613   2.384   1_655  S
O118      Zr1135   2.375       .  S
O118        H143   0.964       .  S
C119        C167   1.491       .  S
C120        C190   1.494       .  S
C121        C174   1.501       .  S
O122        H158   0.990       .  S
O123        C125   1.299       .  A
O124        C125   1.284       .  A
O126       Zr127   2.440       .  S
O126        H155   0.990       .  S
Zr127       O131   2.442       .  S
Zr127       O634   2.438       .  S
Zr127       O132   2.425       .  S
Zr127      O1619   2.407       .  S
Zr127      O1116   2.403       .  S
Zr127      O1629   2.372       .  S
Zr127      O1126   2.375       .  S
O128       C1645   1.285       .  A
O129        H146   0.990       .  S
O129       H1169   0.990       .  S
O130       Zr631   2.438       .  S
O130        H651   0.990       .  S
O131        H151   0.990       .  S
O131        H160   0.990       .  S
O132        C133   1.283       .  A
C133       O1640   1.285       .  A
O134        H153   0.990       .  S
O134        H157   0.990       .  S
O135        H149   0.990       .  S
O135        H156   0.990       .  S
O136       Zr613   2.444       .  S
O136        C140   1.286       .  A
O137        C140   1.296       .  A
O138        H148   0.991       .  S
O139        H152   0.990       .  S
H147        O634   0.989       .  S
H161       O1137   0.990       .  S
H162       O1106   0.988       .  S
N163        C167   1.370       .  A
N163        C164   1.367       .  A
C164        C165   1.374       .  A
C164        C217   1.478       .  S
C165        C166   1.359       .  A
C165        H168   1.083       .  S
C166        C167   1.388       .  A
C166        H169   1.083       .  S
N170        C174   1.375       .  A
N170        C171   1.363       .  A
C171        C172   1.378       .  A
C171        C207   1.487       .  S
C172        C173   1.370       .  A
C172        H175   1.083       .  S
C173        C174   1.387       .  A
C173        H176   1.083       .  S
C177        C178   1.413       .  A
C177        C182   1.409       .  A
C177        C204   1.500       .  S
C178        C179   1.410       .  A
C178        H183   1.077       .  S
C179        C180   1.415       .  A
C179        C214   1.518       .  S
C180        C181   1.408       .  A
C180        H184   1.081       .  S
C181        C182   1.407       .  A
C181        C197   1.508       .  S
C182       H1193   1.079       .  S
H185       C1190   1.080   1_455  S
N186        C190   1.380       .  A
N186        C187   1.371   1_455  A
C187        C188   1.375       .  A
C187        C194   1.483       .  S
C188        C189   1.356       .  A
C188        H191   1.083       .  S
C189        C190   1.387   1_655  A
C189        H192   1.083       .  S
C193        C198   1.404       .  A
C193       C1202   1.401       .  A
C193        H200   1.083       .  S
C194        C195   1.408   1_655  A
C194       C1201   1.401       .  A
C195        C196   1.401       .  A
C195       Br202   1.918       .  S
C196       C1205   1.409   1_455  A
C196        H201   1.081       .  S
C197        C198   1.419       .  A
C197       C1204   1.411       .  A
C198       Br199   1.922       .  S
C203        C204   1.407       .  A
C203        C208   1.396       .  A
C203        H210   1.080       .  S
C204       C1213   1.416       .  A
C205        C206   1.409       .  A
C205       C1212   1.417   1_455  A
C205       Br212   1.919       .  S
C206        C207   1.404       .  A
C206        H211   1.083       .  S
C207       C1216   1.409       .  A
C208       C1215   1.408       .  A
C208       Br209   1.922       .  S
C213        C214   1.414       .  A
C213        C218   1.400       .  A
C213        H220   1.083       .  S
C214        C215   1.428       .  A
C215        C216   1.404       .  A
C215       Br222   1.919       .  S
C216        C217   1.398       .  A
C216        H221   1.084       .  S
C217        C218   1.404       .  A
C218       Br219   1.918       .  S
C223        C224   1.408       .  A
C223        C228   1.402       .  A
C223        H230   1.083       .  S
C224        C225   1.418       .  A
C225        C226   1.398       .  A
C225       Br232   1.924       .  S
C226        C227   1.400       .  A
C226        H231   1.084       .  S
C227        C228   1.405       .  A
C228       Br229   1.916       .  S
C233        C234   1.405       .  A
C233        C238   1.392       .  A
C233        H240   1.083       .  S
C234        C235   1.416       .  A
C235        C236   1.407       .  A
C235       Br242   1.920       .  S
C236        C237   1.403       .  A
C236        H241   1.083       .  S
C237        C238   1.408       .  A
C238       Br239   1.922       .  S
C243        C244   1.398       .  A
C243        C248   1.397       .  A
C243        H250   1.085       .  S
C244        C245   1.403       .  A
C245        C246   1.400       .  A
C245       Br252   1.918       .  S
C246        C247   1.412       .  A
C246        H251   1.083       .  S
C247        C248   1.421       .  A
C248       Br249   1.923       .  S
N253        C257   1.379       .  A
N253        C254   1.363       .  A
N253        C377   1.458       .  S
C254        C255   1.379       .  A
C254        C496   1.475       .  S
C255        C256   1.362       .  A
C255        H258   1.083       .  S
C256        C257   1.382       .  A
C256        H259   1.083       .  S
C257        C306   1.493       .  S
N260        C264   1.372       .  A
N260        C261   1.360       .  A
N260        C392   1.455       .  S
C261        C262   1.379       .  A
C261        C489   1.479       .  S
C262        C263   1.370   1_455  A
C262        H265   1.083       .  S
C263        C264   1.387   1_655  A
C263        H266   1.083       .  S
C264        C307   1.493       .  S
C267        C268   1.409       .  A
C267        C272   1.406       .  A
C267        C486   1.492       .  S
C268        C269   1.406       .  A
C268        H273   1.083       .  S
C269        C270   1.406       .  A
C269        C476   1.503       .  S
C270        C271   1.411       .  A
C270        H274   1.081       .  S
C271        C272   1.405       .  A
C271        C499   1.498       .  S
C272        H275   1.082       .  S
N276        C280   1.362       .  A
N276        C277   1.366       .  A
N276        C385   1.445       .  S
C277        C278   1.377       .  A
C277        C479   1.482       .  S
C278        C279   1.364       .  A
C278        H281   1.082       .  S
C279        C280   1.386       .  A
C279        H282   1.083       .  S
C280        C305   1.484       .  S
Zr283       O284   2.436       .  S
Zr283       O285   2.450   1_455  S
Zr283       O790   2.411   1_545  S
Zr283       O289   2.412       .  S
Zr283       O795   2.382   1_445  S
Zr283       O292   2.385       .  S
Zr283       O293   2.408   1_545  S
Zr283       O294   2.396       .  S
O284        H340   0.988       .  S
O284        H348   0.988       .  S
O285       C1817   1.287       .  A
O286       Zr787   2.412       .  S
O286        C307   1.280       .  A
O287        C306   1.299       .  A
O288        C307   1.297       .  A
O289        C306   1.279       .  A
O290        C305   1.283       .  A
O291       Zr787   2.376   1_655  S
O291      Zr1054   2.366   1_556  S
O292      Zr1558   2.374   1_456  S
O292        H327   0.966       .  S
O293       Zr548   2.373   1_556  S
O293        H330   0.965       .  S
Zr295       O320   2.408       .  S
Zr295       O314   2.444       .  S
Zr295       O322   2.437       .  S
Zr295       O814   2.452   1_545  S
Zr295       O301   2.400       .  S
Zr295       O806   2.407   1_445  S
Zr295       O303   2.377   1_545  S
Zr295       O304   2.382       .  S
Zr296       O315   2.436       .  S
Zr296       O308   2.437   1_455  S
Zr296       O309   2.458       .  S
Zr296       O545   2.369       .  S
Zr296       O302   2.386   1_455  S
Zr296       O807   2.399       .  S
Zr297       O299   2.434       .  S
Zr297       O321   2.438       .  S
Zr297       O323   2.461       .  S
Zr297       O301   2.386       .  S
Zr297       O304   2.373       .  S
Zr298       O828   2.436       .  S
Zr298       O325   2.436       .  S
Zr298       O300   2.438       .  S
Zr298      O1047   2.367       .  S
Zr298      O1552   2.372       .  S
Zr298      O1813   2.389       .  S
Zr298      O1310   2.389       .  S
O299        H336   0.990       .  S
O300        H331   0.990       .  S
O301      Zr1810   2.386   1_455  S
O302       Zr799   2.408   1_655  S
O302      Zr1306   2.392       .  S
O302        H328   0.965       .  S
O303       Zr800   2.395       .  S
O303       Zr313   2.367   1_565  S
O304       Zr313   2.381       .  S
O304        H329   0.964       .  S
C305       O1797   1.287       .  A
O309        C311   1.292       .  A
O310       Zr799   2.454       .  S
O310        C311   1.287       .  A
C311        N438   1.458       .  S
O312        H341   0.990       .  S
Zr313       O316   2.439   1_545  S
Zr313       O317   2.432       .  S
Zr313       O318   2.438       .  S
O314        C319   1.286       .  A
O315        H332   0.990       .  S
O316        H333   0.991   1_565  S
O317        H337   0.989       .  S
O317        H346   0.990       .  S
O318        C319   1.285       .  A
C319        N415   1.446       .  S
O320       H1347   0.991   1_455  S
O320       H1855   0.989   1_445  S
O321        H335   0.990       .  S
O321       H1098   0.989       .  S
O322        C326   1.284       .  A
O323        C326   1.294       .  A
O324       Zr802   2.437       .  S
O324        H586   0.990       .  S
O325        H338   0.990       .  S
C326        N422   1.453       .  S
H334        O576   0.990   1_556  S
H339       O1328   0.990       .  S
H342       O1077   0.990       .  S
H343       O1832   0.989       .  S
Zr349       O350   2.438   1_455  S
Zr349       O351   2.458       .  S
Zr349       O352   2.419       .  S
Zr349       O859   2.429   1_545  S
Zr349       O357   2.374       .  S
Zr349       O358   2.391   1_545  S
Zr349       O359   2.406       .  S
Zr349       O864   2.401   1_445  S
O350        H406   0.988   1_545  S
O350       H1422   0.988       .  S
O351        C371   1.289       .  A
O352        C373   1.281       .  A
O353       Zr363   2.460       .  S
O353        C372   1.295       .  A
O354       Zr362   2.483       .  S
O354        C373   1.298       .  A
O355       Zr853   2.428       .  S
O355        C372   1.282       .  A
O356       Zr364   2.403       .  S
O356        C371   1.280       .  A
O357       Zr362   2.370       .  S
O357       Zr364   2.359       .  S
O358       Zr867   2.382       .  S
O358       Zr364   2.365   1_565  S
O358        H393   0.966       .  S
O359       Zr362   2.382       .  S
O359      Zr1891   2.407   1_455  S
O359        H396   0.966       .  S
O360       Zr853   2.402   1_655  S
O360       Zr363   2.377   1_655  S
O360      Zr1387   2.403       .  S
Zr361       O386   2.412       .  S
Zr361       O380   2.440   1_455  S
Zr361       O892   2.447   1_545  S
Zr361       O376   2.436       .  S
Zr361       O367   2.398       .  S
Zr361       O368   2.406       .  S
Zr361       O369   2.378       .  S
Zr361       O874   2.381   1_445  S
Zr362       O381   2.434       .  S
Zr362       O374   2.427       .  S
Zr362       O375   2.487       .  S
Zr362       O368   2.391       .  S
Zr362       O369   2.385       .  S
Zr363       O365   2.433   1_455  S
Zr363       O387   2.435       .  S
Zr363       O389   2.462       .  S
Zr363       O862   2.376       .  S
Zr363       O871   2.377       .  S
Zr363       O370   2.389   1_455  S
Zr364       O390   2.437       .  S
Zr364       O391   2.437       .  S
Zr364       O366   2.441       .  S
Zr364       O367   2.388       .  S
Zr364       O368   2.388       .  S
O365        H402   0.990       .  S
O366        H397   0.990       .  S
O366        H411   0.990       .  S
O367       Zr867   2.375   1_545  S
O368        H394   0.963       .  S
O369      Zr1891   2.372   1_455  S
O370       Zr865   2.382   1_655  S
O370      Zr1387   2.376       .  S
O370        H395   0.964       .  S
C371        C419   1.488       .  S
C372        C442   1.496   1_455  S
C373        C426   1.499       .  S
O374        H410   0.990       .  S
O375        C377   1.299       .  A
O376        C377   1.284       .  A
O378       Zr379   2.438       .  S
O378        H407   0.991       .  S
Zr379       O886   2.438       .  S
Zr379       O383   2.437       .  S
Zr379       O384   2.415       .  S
Zr379      O1871   2.404       .  S
Zr379      O1368   2.398       .  S
Zr379      O1881   2.375       .  S
Zr379      O1378   2.373       .  S
O380       C1897   1.285       .  A
O381        H398   0.990       .  S
O381       H1421   0.990       .  S
O382       Zr883   2.437       .  S
O382        H903   0.990       .  S
O383        H403   0.990       .  S
O383        H412   0.990       .  S
O384        C385   1.281       .  A
C385       O1892   1.286       .  A
O386        H405   0.990       .  S
O386        H409   0.989       .  S
O387        H401   0.990       .  S
O387        H408   0.990       .  S
O388       Zr865   2.443       .  S
O388        C392   1.285       .  A
O389        C392   1.293       .  A
O390        H400   0.990       .  S
O391        H404   0.990       .  S
H399        O886   0.990       .  S
H413       O1389   0.990       .  S
H414       O1358   0.988       .  S
N415        C419   1.368       .  A
N415        C416   1.369       .  A
C416        C417   1.375       .  A
C416        C469   1.478       .  S
C417        C418   1.359       .  A
C417        H420   1.083       .  S
C418        C419   1.388       .  A
C418        H421   1.083       .  S
N422        C426   1.374       .  A
N422        C423   1.362       .  A
C423        C424   1.378       .  A
C423        C459   1.486       .  S
C424        C425   1.371       .  A
C424        H427   1.082       .  S
C425        C426   1.387       .  A
C425        H428   1.083       .  S
C429        C430   1.413       .  A
C429        C434   1.409       .  A
C429        C456   1.501       .  S
C430        C431   1.410       .  A
C430        H435   1.077       .  S
C431        C432   1.416       .  A
C431        C466   1.520       .  S
C432        C433   1.410       .  A
C432        H436   1.080       .  S
C433        C434   1.411       .  A
C433        C449   1.511       .  S
C434       H1445   1.080       .  S
H437       C1442   1.079   1_455  S
N438        C442   1.380   1_455  A
N438        C439   1.369   1_455  A
C439        C440   1.375       .  A
C439        C446   1.480       .  S
C440        C441   1.357       .  A
C440        H443   1.083       .  S
C441        C442   1.388       .  A
C441        H444   1.083       .  S
C445       C1454   1.400       .  A
C445        C450   1.405       .  A
C445        H452   1.083       .  S
C446       C1453   1.401       .  A
C446        C447   1.406   1_655  A
C447        C448   1.400       .  A
C447       Br454   1.919       .  S
C448       C1457   1.410   1_455  A
C448        H453   1.080       .  S
C449       C1456   1.411       .  A
C449        C450   1.421       .  A
C450       Br451   1.921       .  S
C455        C456   1.405       .  A
C455        C460   1.394       .  A
C455        H462   1.080       .  S
C456       C1465   1.416       .  A
C457       C1464   1.416   1_455  A
C457        C458   1.409       .  A
C457       Br464   1.920       .  S
C458        C459   1.406       .  A
C458        H463   1.083       .  S
C459       C1468   1.408       .  A
C460       C1467   1.407       .  A
C460       Br461   1.921       .  S
C465        C466   1.415       .  A
C465        C470   1.402       .  A
C465        H472   1.083       .  S
C466        C467   1.430       .  A
C467        C468   1.404       .  A
C467       Br474   1.919       .  S
C468        C469   1.398       .  A
C468        H473   1.084       .  S
C469        C470   1.403       .  A
C470       Br471   1.919       .  S
C475        C476   1.411       .  A
C475        C480   1.404       .  A
C475        H482   1.083       .  S
C476        C477   1.421       .  A
C477        C478   1.401       .  A
C477       Br484   1.924       .  S
C478        C479   1.400       .  A
C478        H483   1.084       .  S
C479        C480   1.407       .  A
C480       Br481   1.918       .  S
C485        C486   1.405       .  A
C485        C490   1.392       .  A
C485        H492   1.083       .  S
C486        C487   1.416       .  A
C487        C488   1.407       .  A
C487       Br494   1.919       .  S
C488        C489   1.403       .  A
C488        H493   1.083       .  S
C489        C490   1.408       .  A
C490       Br491   1.922       .  S
C495        C496   1.400       .  A
C495        C500   1.398       .  A
C495        H502   1.085       .  S
C496        C497   1.405       .  A
C497        C498   1.400       .  A
C497       Br504   1.917       .  S
C498        C499   1.409       .  A
C498        H503   1.083       .  S
C499        C500   1.421       .  A
C500       Br501   1.924       .  S
N505        C509   1.378       .  A
N505        C506   1.363       .  A
N505        C629   1.457       .  S
C506        C507   1.379       .  A
C506        C748   1.475       .  S
C507        C508   1.362       .  A
C507        H510   1.083       .  S
C508        C509   1.382       .  A
C508        H511   1.083       .  S
C509        C558   1.492       .  S
N512        C516   1.371       .  A
N512        C513   1.360       .  A
N512        C644   1.455       .  S
C513        C514   1.379       .  A
C513        C741   1.479       .  S
C514        C515   1.369   1_455  A
C514        H517   1.082   1_455  S
C515        C516   1.386   1_655  A
C515        H518   1.083       .  S
C516        C559   1.491       .  S
C519        C520   1.409       .  A
C519        C524   1.406       .  A
C519        C738   1.494       .  S
C520        C521   1.408       .  A
C520        H525   1.083       .  S
C521        C522   1.404       .  A
C521        C728   1.499       .  S
C522        C523   1.410       .  A
C522        H526   1.081       .  S
C523        C524   1.405       .  A
C523        C751   1.497       .  S
C524        H527   1.081       .  S
N528        C532   1.360   1_565  A
N528        C529   1.362       .  A
N528        C637   1.445   1_565  S
C529        C530   1.378   1_565  A
C529        C731   1.476       .  S
C530        C531   1.364       .  A
C530        H533   1.083       .  S
C531        C532   1.387       .  A
C531        H534   1.083       .  S
C532        C557   1.478       .  S
Zr535       O536   2.437       .  S
Zr535       O537   2.447       .  S
Zr535       O541   2.412       .  S
Zr535       O544   2.387       .  S
Zr535       O545   2.406       .  S
Zr535       O546   2.399       .  S
O536        H592   0.988       .  S
O536        H600   0.988       .  S
O537       C1061   1.287   1_455  A
O538        C559   1.279       .  A
O539       Zr801   2.481       .  S
O539        C558   1.298       .  A
O540       Zr800   2.470       .  S
O540        C559   1.296       .  A
O541        C558   1.279       .  A
O542       Zr802   2.405       .  S
O542        C557   1.282       .  A
O543       Zr800   2.374   1_655  S
O543      Zr1810   2.364   1_565  S
O544       Zr801   2.363       .  S
O544      Zr1306   2.370   1_455  S
O544        H579   0.966       .  S
O545       Zr817   2.408       .  S
O545        H582   0.965       .  S
O546       Zr801   2.375       .  S
O546       Zr817   2.404       .  S
Zr547       O572   2.411       .  S
Zr547       O566   2.443       .  S
Zr547       O574   2.430       .  S
Zr547       O553   2.402       .  S
Zr547       O555   2.375       .  S
Zr547       O556   2.387       .  S
Zr548       O567   2.435       .  S
Zr548       O560   2.435   1_455  S
Zr548       O792   2.477   1_554  S
Zr548       O561   2.454       .  S
Zr548       O795   2.378   1_454  S
Zr548       O554   2.385       .  S
Zr549       O551   2.434       .  S
Zr549       O573   2.439       .  S
Zr549       O791   2.479   1_554  S
Zr549       O575   2.462       .  S
Zr549       O796   2.359   1_554  S
Zr549       O798   2.375   1_554  S
Zr549       O553   2.387       .  S
Zr549       O556   2.371       .  S
Zr550       O577   2.439   1_545  S
Zr550       O552   2.440   1_545  S
Zr550       O794   2.410   1_554  S
Zr550      O1803   2.368   1_544  S
Zr550      O1300   2.375   1_554  S
Zr550      O1057   2.387       .  S
Zr550      O1562   2.392   1_545  S
O551        H588   0.990       .  S
O552        H583   0.990   1_554  S
O552        H849   0.990   1_554  S
O553      Zr1054   2.386   1_455  S
O554      Zr1558   2.391   1_465  S
O554        H580   0.965   1_455  S
O555       Zr565   2.372       .  S
O556       Zr565   2.375       .  S
O556        H581   0.964       .  S
C557       O1041   1.286       .  A
O560        H848   0.990       .  S
O561        C563   1.291       .  A
O562        C563   1.286       .  A
C563        N690   1.457       .  S
O564       Zr817   2.437       .  S
O564        H593   0.990       .  S
Zr565       O816   2.439   1_554  S
Zr565       O568   2.436       .  S
Zr565       O569   2.434       .  S
Zr565       O570   2.440       .  S
Zr565       O797   2.410   1_554  S
Zr565       O798   2.407   1_554  S
O566        C571   1.286       .  A
O567        H584   0.990       .  S
O567        H851   0.990       .  S
O568        H585   0.991       .  S
O569        H589   0.990       .  S
O569        H598   0.989       .  S
O570        C571   1.285       .  A
C571        N667   1.446       .  S
O572       H1599   0.991   1_455  S
O572       H1099   0.989   1_455  S
O573        H587   0.990   1_554  S
O573       H1854   0.990       .  S
O574        C578   1.283       .  A
O575        C578   1.294       .  A
O577        H590   0.990       .  S
C578        N674   1.451       .  S
H591       O1580   0.990       .  S
H594       O1833   0.990       .  S
H595       O1076   0.989   1_565  S
H596        O812   0.990       .  S
H597        O804   0.990       .  S
H599        O819   0.989       .  S
Zr601       O602   2.437   1_455  S
Zr601       O603   2.455       .  S
Zr601       O604   2.429       .  S
Zr601       O609   2.377       .  S
Zr601       O610   2.395       .  S
Zr601       O611   2.405       .  S
O602        H658   0.988       .  S
O602       H1674   0.988       .  S
O603        C623   1.288       .  A
O604        C625   1.283       .  A
O605       Zr615   2.456       .  S
O605        C624   1.294       .  A
O606       Zr614   2.481       .  S
O606        C625   1.297       .  A
O607        C624   1.282       .  A
O608       Zr616   2.411       .  S
O608        C623   1.282       .  A
O609       Zr614   2.373       .  S
O609       Zr616   2.366       .  S
O610       Zr616   2.359       .  S
O610        H645   0.966       .  S
O611       Zr614   2.381       .  S
O611      Zr1135   2.405   1_455  S
O611        H648   0.966       .  S
O612       Zr615   2.379   1_655  S
O612      Zr1639   2.399   1_565  S
Zr613       O638   2.418       .  S
Zr613       O632   2.449   1_455  S
Zr613       O628   2.435       .  S
Zr613       O619   2.400       .  S
Zr613       O620   2.408       .  S
Zr613       O621   2.380       .  S
Zr614       O633   2.434       .  S
Zr614       O626   2.426       .  S
Zr614       O627   2.485       .  S
Zr614       O620   2.390       .  S
Zr614       O621   2.386       .  S
Zr615       O617   2.435   1_455  S
Zr615       O639   2.436       .  S
Zr615       O641   2.460       .  S
Zr615       O622   2.392   1_455  S
Zr616       O642   2.438       .  S
Zr616       O643   2.435       .  S
Zr616       O618   2.436       .  S
Zr616       O619   2.384       .  S
Zr616       O620   2.389       .  S
O617        H654   0.990       .  S
O618        H649   0.991       .  S
O618        H663   0.990       .  S
O620        H646   0.966       .  S
O621      Zr1135   2.375   1_455  S
O622      Zr1639   2.375   1_565  S
O622        H647   0.964       .  S
C623        C671   1.490       .  S
C624        C694   1.493       .  S
C625        C678   1.503       .  S
O626        H662   0.990       .  S
O627        C629   1.298       .  A
O628        C629   1.284       .  A
O630       Zr631   2.439   1_565  S
O630        H659   0.991       .  S
Zr631       O635   2.441   1_545  S
Zr631       O636   2.419   1_545  S
Zr631      O1115   2.403       .  S
Zr631      O1620   2.400   1_545  S
Zr631      O1125   2.373       .  S
Zr631      O1630   2.375   1_545  S
O632       C1141   1.288       .  A
O633        H650   0.990       .  S
O633       H1673   0.990       .  S
O635        H655   0.990       .  S
O635        H664   0.990       .  S
O636        C637   1.282   1_565  A
C637       O1136   1.285       .  A
O638        H657   0.990       .  S
O638        H661   0.989       .  S
O639        H653   0.990       .  S
O639        H660   0.990       .  S
O640        C644   1.285       .  A
O641        C644   1.293       .  A
O642        H652   0.990       .  S
O643        H656   0.990       .  S
H665       O1641   0.990       .  S
H666       O1610   0.988       .  S
N667        C671   1.369       .  A
N667        C668   1.370       .  A
C668        C669   1.376       .  A
C668        C721   1.482       .  S
C669        C670   1.360       .  A
C669        H672   1.083       .  S
C670        C671   1.387       .  A
C670        H673   1.083       .  S
N674        C678   1.373       .  A
N674        C675   1.362       .  A
C675        C676   1.378       .  A
C675        C711   1.487       .  S
C676        C677   1.372       .  A
C676        H679   1.082       .  S
C677        C678   1.387       .  A
C677        H680   1.082       .  S
C681        C682   1.417       .  A
C681        C686   1.410       .  A
C681        C708   1.502       .  S
C682        C683   1.412       .  A
C682        H687   1.078       .  S
C683        C684   1.412       .  A
C683        C718   1.516       .  S
C684        C685   1.405       .  A
C684        H688   1.081       .  S
C685        C686   1.407       .  A
C685        C701   1.506       .  S
C686       H1697   1.079       .  S
H689       C1694   1.079   1_455  S
N690        C694   1.379       .  A
N690        C691   1.368   1_455  A
C691        C692   1.374       .  A
C691        C698   1.478       .  S
C692        C693   1.357       .  A
C692        H695   1.083       .  S
C693        C694   1.388   1_655  A
C693        H696   1.083       .  S
C697       C1706   1.400       .  A
C697        C702   1.404       .  A
C697        H704   1.083       .  S
C698       C1705   1.400       .  A
C698        C699   1.405   1_655  A
C699        C700   1.398       .  A
C699       Br706   1.918       .  S
C700       C1709   1.411   1_455  A
C700        H705   1.080       .  S
C701       C1708   1.410       .  A
C701        C702   1.421       .  A
C702       Br703   1.923       .  S
C707        C708   1.407       .  A
C707        C712   1.395       .  A
C707        H714   1.080       .  S
C708       C1717   1.418       .  A
C709       C1716   1.416   1_455  A
C709        C710   1.410       .  A
C709       Br716   1.920       .  S
C710        C711   1.407       .  A
C710        H715   1.083       .  S
C711       C1720   1.408       .  A
C712       C1719   1.408       .  A
C712       Br713   1.923       .  S
C717        C718   1.414       .  A
C717        C722   1.400       .  A
C717        H724   1.083       .  S
C718        C719   1.425       .  A
C719        C720   1.407       .  A
C719       Br726   1.918       .  S
C720        C721   1.402       .  A
C720        H725   1.084       .  S
C721        C722   1.405       .  A
C722       Br723   1.918       .  S
C727        C728   1.411       .  A
C727        C732   1.402       .  A
C727        H734   1.083       .  S
C728        C729   1.421       .  A
C729        C730   1.398       .  A
C729       Br736   1.923       .  S
C730        C731   1.398       .  A
C730        H735   1.084       .  S
C731        C732   1.405       .  A
C732       Br733   1.918   1_565  S
C737        C738   1.405       .  A
C737        C742   1.393       .  A
C737        H744   1.083       .  S
C738        C739   1.417       .  A
C739        C740   1.407       .  A
C739       Br746   1.919       .  S
C740        C741   1.403       .  A
C740        H745   1.083       .  S
C741        C742   1.408       .  A
C742       Br743   1.922       .  S
C747        C748   1.400       .  A
C747        C752   1.398       .  A
C747        H754   1.085       .  S
C748        C749   1.405       .  A
C749        C750   1.400       .  A
C749       Br756   1.917       .  S
C750        C751   1.409       .  A
C750        H755   1.083       .  S
C751        C752   1.422       .  A
C752       Br753   1.925       .  S
N757        C761   1.378       .  A
N757        C758   1.361       .  A
N757        C881   1.457       .  S
C758        C759   1.378       .  A
C758       C1000   1.471       .  S
C759        C760   1.361       .  A
C759        H762   1.083       .  S
C760        C761   1.383       .  A
C760        H763   1.083       .  S
C761        C810   1.489       .  S
N764        C768   1.374       .  A
N764        C765   1.363       .  A
N764        C896   1.457       .  S
C765        C766   1.379       .  A
C765        C993   1.484       .  S
C766        C767   1.369   1_455  A
C766        H769   1.083       .  S
C767        C768   1.386   1_655  A
C767        H770   1.083       .  S
C768        C811   1.495       .  S
C771        C772   1.410       .  A
C771        C776   1.407       .  A
C771        C990   1.497       .  S
C772        C773   1.406       .  A
C772        H777   1.083       .  S
C773        C774   1.402       .  A
C773        C980   1.497       .  S
C774        C775   1.409       .  A
C774        H778   1.082       .  S
C775        C776   1.406       .  A
C775       C1003   1.497       .  S
C776        H779   1.080       .  S
N780        C784   1.360       .  A
N780        C781   1.362   1_545  A
N780        C889   1.446       .  S
C781        C782   1.377   1_565  A
C781        C983   1.476       .  S
C782        C783   1.364       .  A
C782        H785   1.083       .  S
C783        C784   1.387       .  A
C783        H786   1.083       .  S
C784        C809   1.479       .  S
Zr787       O788   2.439       .  S
Zr787       O789   2.459   1_455  S
Zr787       O793   2.409       .  S
Zr787       O796   2.385       .  S
Zr787       O797   2.408       .  S
Zr787       O798   2.401       .  S
O788        H844   0.988       .  S
O788        H852   0.988       .  S
O789       C1313   1.290       .  A
O790        C811   1.279       .  A
O791        C810   1.298       .  A
O792        C811   1.298       .  A
O793        C810   1.278       .  A
O794        C809   1.282       .  A
O795      Zr1558   2.367   1_566  S
O796      Zr1054   2.373   1_456  S
O796        H831   0.966       .  S
O797        H834   0.965       .  S
Zr799       O824   2.405       .  S
Zr799       O818   2.441       .  S
Zr799       O826   2.438       .  S
Zr799       O805   2.402       .  S
Zr799       O807   2.378       .  S
Zr799       O808   2.385       .  S
Zr800       O819   2.435       .  S
Zr800       O812   2.433   1_455  S
Zr800       O813   2.458       .  S
Zr800       O806   2.383   1_455  S
Zr801       O803   2.434       .  S
Zr801       O825   2.438       .  S
Zr801       O827   2.469       .  S
Zr801       O805   2.386       .  S
Zr801       O808   2.379       .  S
Zr802       O829   2.440   1_545  S
Zr802       O804   2.438   1_545  S
Zr802      O1551   2.366   1_545  S
Zr802      O1048   2.375       .  S
Zr802      O1309   2.384       .  S
Zr802      O1814   2.391   1_545  S
O803        H840   0.990       .  S
O804        H835   0.990       .  S
O805      Zr1306   2.382   1_455  S
O806      Zr1810   2.391   1_565  S
O806        H832   0.964       .  S
O807       Zr817   2.372       .  S
O808       Zr817   2.376       .  S
O808        H833   0.965       .  S
C809       O1293   1.286       .  A
O813        C815   1.292       .  A
O814        C815   1.287       .  A
C815        N942   1.458       .  S
O816        H845   0.990       .  S
Zr817       O820   2.435       .  S
Zr817       O821   2.434       .  S
Zr817       O822   2.440       .  S
O818        C823   1.284       .  A
O819        H836   0.990       .  S
O820        H837   0.991       .  S
O821        H841   0.990       .  S
O821        H850   0.989       .  S
O822        C823   1.286       .  A
C823        N919   1.448       .  S
O824       H1851   0.990   1_455  S
O824       H1351   0.989   1_455  S
O825        H839   0.990       .  S
O825       H1602   0.990       .  S
O826        C830   1.284       .  A
O827        C830   1.295       .  A
O829        H842   0.990       .  S
C830        N926   1.454       .  S
H843       O1832   0.990       .  S
H846       O1581   0.990       .  S
H847       O1328   0.990   1_565  S
Zr853       O854   2.437   1_455  S
Zr853       O855   2.457       .  S
Zr853       O856   2.422       .  S
Zr853       O861   2.382       .  S
Zr853       O862   2.388       .  S
Zr853       O863   2.405       .  S
O854        H910   0.988       .  S
O854       H1926   0.988       .  S
O855        C875   1.288       .  A
O856        C877   1.282       .  A
O857       Zr867   2.461       .  S
O857        C876   1.295       .  A
O858       Zr866   2.491       .  S
O858        C877   1.300       .  A
O859        C876   1.282       .  A
O860       Zr868   2.397       .  S
O860        C875   1.280       .  A
O861       Zr866   2.376       .  S
O861       Zr868   2.366       .  S
O862       Zr868   2.361       .  S
O862        H897   0.966       .  S
O863       Zr866   2.373       .  S
O863      Zr1387   2.405   1_455  S
O863        H900   0.966       .  S
O864       Zr867   2.379   1_655  S
O864      Zr1891   2.400   1_565  S
Zr865       O890   2.410       .  S
Zr865       O884   2.420   1_455  S
Zr865       O880   2.437       .  S
Zr865       O871   2.392       .  S
Zr865       O872   2.401       .  S
Zr865       O873   2.382       .  S
Zr866       O885   2.435       .  S
Zr866       O878   2.426       .  S
Zr866       O879   2.482       .  S
Zr866       O872   2.394       .  S
Zr866       O873   2.387       .  S
Zr867       O869   2.434   1_455  S
Zr867       O891   2.436       .  S
Zr867       O893   2.464       .  S
Zr867       O874   2.389   1_455  S
Zr868       O894   2.433       .  S
Zr868       O895   2.436       .  S
Zr868       O870   2.437       .  S
Zr868       O871   2.379       .  S
Zr868       O872   2.380       .  S
O869        H906   0.990       .  S
O870        H901   0.990       .  S
O870        H915   0.990       .  S
O872        H898   0.966       .  S
O873      Zr1387   2.372   1_455  S
O874      Zr1891   2.375   1_565  S
O874        H899   0.964       .  S
C875        C923   1.491       .  S
C876        C946   1.496       .  S
C877        C930   1.503       .  S
O878        H914   0.990       .  S
O879        C881   1.298       .  A
O880        C881   1.284       .  A
O882       Zr883   2.442   1_565  S
O882        H911   0.991       .  S
Zr883       O887   2.443   1_545  S
Zr883       O888   2.422   1_545  S
Zr883      O1367   2.405       .  S
Zr883      O1872   2.402   1_545  S
Zr883      O1377   2.377       .  S
Zr883      O1882   2.375   1_545  S
O884       C1393   1.281       .  A
O885        H902   0.990       .  S
O885       H1925   0.990       .  S
O887        H907   0.991       .  S
O887        H916   0.989       .  S
O888        C889   1.282   1_565  A
C889       O1388   1.286       .  A
O890        H909   0.990       .  S
O890        H913   0.990       .  S
O891        H905   0.990       .  S
O891        H912   0.990       .  S
O892        C896   1.287       .  A
O893        C896   1.294       .  A
O894        H904   0.990       .  S
O895        H908   0.990       .  S
H917       O1893   0.990       .  S
H918       O1862   0.988       .  S
N919        C923   1.371       .  A
N919        C920   1.369       .  A
C920        C921   1.373       .  A
C920        C973   1.476       .  S
C921        C922   1.354       .  A
C921        H924   1.083       .  S
C922        C923   1.390       .  A
C922        H925   1.083       .  S
N926        C930   1.376       .  A
N926        C927   1.363       .  A
C927        C928   1.378       .  A
C927        C963   1.487       .  S
C928        C929   1.371       .  A
C928        H931   1.082       .  S
C929        C930   1.386       .  A
C929        H932   1.083       .  S
C933        C934   1.413       .  A
C933        C938   1.406       .  A
C933        C960   1.498       .  S
C934        C935   1.411       .  A
C934        H939   1.074       .  S
C935        C936   1.417       .  A
C935        C970   1.523       .  S
C936        C937   1.409       .  A
C936        H940   1.080       .  S
C937        C938   1.405       .  A
C937        C953   1.505       .  S
C938       H1949   1.080       .  S
H941       C1946   1.079   1_455  S
N942        C946   1.380       .  A
N942        C943   1.368   1_455  A
C943        C944   1.375       .  A
C943        C950   1.479       .  S
C944        C945   1.357       .  A
C944        H947   1.083       .  S
C945        C946   1.388   1_655  A
C945        H948   1.083       .  S
C949       C1958   1.399       .  A
C949        C954   1.402       .  A
C949        H956   1.083       .  S
C950       C1957   1.399       .  A
C950        C951   1.405   1_655  A
C951        C952   1.399       .  A
C951       Br958   1.918       .  S
C952       C1961   1.410   1_455  A
C952        H957   1.081       .  S
C953       C1960   1.412       .  A
C953        C954   1.419       .  A
C954       Br955   1.921       .  S
C959        C960   1.405       .  A
C959        C964   1.393       .  A
C959        H966   1.081       .  S
C960       C1969   1.416       .  A
C961       C1968   1.419   1_455  A
C961        C962   1.409       .  A
C961       Br968   1.919       .  S
C962        C963   1.404       .  A
C962        H967   1.083       .  S
C963       C1972   1.408       .  A
C964       C1971   1.408       .  A
C964       Br965   1.921       .  S
C969        C970   1.417       .  A
C969        C974   1.401       .  A
C969        H976   1.082       .  S
C970        C971   1.431       .  A
C971        C972   1.404       .  A
C971       Br978   1.921       .  S
C972        C973   1.398       .  A
C972        H977   1.084       .  S
C973        C974   1.401       .  A
C974       Br975   1.919       .  S
C979        C980   1.409       .  A
C979        C984   1.401       .  A
C979        H986   1.083       .  S
C980        C981   1.420       .  A
C981        C982   1.400       .  A
C981       Br988   1.925       .  S
C982        C983   1.400       .  A
C982        H987   1.084       .  S
C983        C984   1.404       .  A
C984       Br985   1.918   1_565  S
C989        C990   1.406       .  A
C989        C994   1.393       .  A
C989        H996   1.083       .  S
C990        C991   1.417       .  A
C991        C992   1.410       .  A
C991       Br998   1.921       .  S
C992        C993   1.405       .  A
C992        H997   1.083       .  S
C993        C994   1.408       .  A
C994       Br995   1.921       .  S
C999       C1000   1.399       .  A
C999       C1004   1.397       .  A
C999       H1006   1.085       .  S
C1000      C1001   1.403       .  A
C1001      C1002   1.399       .  A
C1001     Br1008   1.918       .  S
C1002      C1003   1.411       .  A
C1002      H1007   1.083       .  S
C1003      C1004   1.422       .  A
C1004     Br1005   1.925       .  S
N1009      C1013   1.377       .  A
N1009      C1010   1.362       .  A
N1009      C1133   1.458       .  S
C1010      C1011   1.378       .  A
C1010      C1252   1.473       .  S
C1011      C1012   1.360       .  A
C1011      H1014   1.083       .  S
C1012      C1013   1.382       .  A
C1012      H1015   1.083       .  S
C1013      C1062   1.490       .  S
N1016      C1020   1.371       .  A
N1016      C1017   1.359       .  A
N1016      C1148   1.456       .  S
C1017      C1018   1.379       .  A
C1017      C1245   1.478       .  S
C1018      C1019   1.369       .  A
C1018      H1021   1.082       .  S
C1019      C1020   1.386       .  A
C1019      H1022   1.083       .  S
C1020      C1063   1.491       .  S
C1023      C1024   1.409       .  A
C1023      C1028   1.407       .  A
C1023      C1242   1.496       .  S
C1024      C1025   1.407       .  A
C1024      H1029   1.084       .  S
C1025      C1026   1.403       .  A
C1025      C1232   1.495       .  S
C1026      C1027   1.408       .  A
C1026      H1030   1.082       .  S
C1027      C1028   1.406       .  A
C1027      C1255   1.497       .  S
C1028      H1031   1.081       .  S
N1032      C1036   1.361       .  A
N1032      C1033   1.364       .  A
N1032      C1141   1.447       .  S
C1033      C1034   1.377       .  A
C1033      C1235   1.477       .  S
C1034      C1035   1.365       .  A
C1034      H1037   1.083       .  S
C1035      C1036   1.388       .  A
C1035      H1038   1.083       .  S
C1036      C1061   1.481       .  S
Zr1039     O1040   2.437       .  S
Zr1039     O1041   2.441       .  S
Zr1039     O1546   2.407   1_545  S
Zr1039     O1045   2.411       .  S
Zr1039     O1551   2.377   1_545  S
Zr1039     O1048   2.388       .  S
Zr1039     O1049   2.403   1_545  S
Zr1039     O1050   2.392       .  S
O1040      H1096   0.988       .  S
O1040      H1104   0.988       .  S
O1042     Zr1543   2.410       .  S
O1042      C1063   1.279       .  A
O1043     Zr1305   2.478       .  S
O1043      C1062   1.297       .  A
O1044     Zr1304   2.470       .  S
O1044      C1063   1.296       .  A
O1045      C1062   1.278       .  A
O1046     Zr1306   2.409       .  S
O1046      C1061   1.282       .  A
O1047     Zr1543   2.378       .  S
O1047     Zr1304   2.375       .  S
O1048     Zr1305   2.358       .  S
O1048      H1083   0.966       .  S
O1049     Zr1808   2.372       .  S
O1049     Zr1321   2.403   1_565  S
O1049      H1086   0.965       .  S
O1050     Zr1305   2.375       .  S
O1050     Zr1321   2.400       .  S
Zr1051     O1076   2.409       .  S
Zr1051     O1070   2.444       .  S
Zr1051     O1078   2.441       .  S
Zr1051     O1570   2.452   1_545  S
Zr1051     O1057   2.398       .  S
Zr1051     O1562   2.410   1_545  S
Zr1051     O1059   2.380   1_545  S
Zr1051     O1060   2.386       .  S
Zr1052     O1071   2.434       .  S
Zr1052     O1064   2.434       .  S
Zr1052     O1296   2.482   1_554  S
Zr1052     O1065   2.453       .  S
Zr1052     O1299   2.374   1_554  S
Zr1052     O1805   2.371   1_554  S
Zr1052     O1058   2.386       .  S
Zr1052     O1563   2.397       .  S
Zr1053     O1055   2.434       .  S
Zr1053     O1077   2.438       .  S
Zr1053     O1295   2.480   1_554  S
Zr1053     O1079   2.471       .  S
Zr1053     O1300   2.360   1_554  S
Zr1053     O1302   2.378   1_554  S
Zr1053     O1057   2.384       .  S
Zr1053     O1060   2.368       .  S
Zr1054     O1584   2.437       .  S
Zr1054     O1081   2.440       .  S
Zr1054     O1056   2.439       .  S
Zr1054     O1298   2.409   1_554  S
O1055      H1092   0.990   1_554  S
O1056      H1087   0.990       .  S
O1056      H1353   0.990   1_554  S
O1058     Zr1555   2.405       .  S
O1058      H1084   0.964       .  S
O1059     Zr1556   2.396       .  S
O1059     Zr1069   2.365   1_565  S
O1060     Zr1069   2.380       .  S
O1060      H1085   0.964       .  S
O1064      H1352   0.990       .  S
O1065      C1067   1.291       .  A
O1066     Zr1555   2.452       .  S
O1066      C1067   1.287       .  A
C1067      N1194   1.457       .  S
O1068     Zr1321   2.438       .  S
O1068      H1097   0.990       .  S
Zr1069     O1320   2.440   1_554  S
Zr1069     O1072   2.436   1_545  S
Zr1069     O1073   2.434       .  S
Zr1069     O1074   2.442       .  S
Zr1069     O1301   2.403   1_544  S
Zr1069     O1302   2.409   1_554  S
O1070      C1075   1.287       .  A
O1071      H1088   0.990       .  S
O1071      H1355   0.990       .  S
O1072      H1089   0.990   1_565  S
O1073      H1093   0.990       .  S
O1073      H1102   0.990       .  S
O1074      C1075   1.286       .  A
C1075      N1171   1.447       .  S
O1077      H1091   0.989   1_554  S
O1078      C1082   1.285       .  A
O1079      C1082   1.296       .  A
O1080     Zr1558   2.433       .  S
O1080      H1846   0.989       .  S
O1081      H1094   0.990       .  S
C1082      N1178   1.457       .  S
H1090      O1836   0.990       .  S
H1100      O1316   0.989       .  S
H1101      O1308   0.990       .  S
H1103      O1323   0.990       .  S
Zr1105     O1106   2.434       .  S
Zr1105     O1107   2.450       .  S
Zr1105     O1108   2.417       .  S
Zr1105     O1615   2.429   1_545  S
Zr1105     O1113   2.376       .  S
Zr1105     O1114   2.389       .  S
Zr1105     O1115   2.405       .  S
Zr1105     O1620   2.402   1_545  S
O1106      H1162   0.988   1_545  S
O1107      C1127   1.287       .  A
O1108      C1129   1.280       .  A
O1109     Zr1119   2.467       .  S
O1109      C1128   1.296       .  A
O1110     Zr1118   2.485       .  S
O1110      C1129   1.298       .  A
O1111     Zr1609   2.428       .  S
O1111      C1128   1.282       .  A
O1112     Zr1120   2.415       .  S
O1112      C1127   1.283       .  A
O1113     Zr1118   2.374       .  S
O1113     Zr1120   2.361       .  S
O1114     Zr1623   2.384   1_545  S
O1114     Zr1120   2.362       .  S
O1114      H1149   0.966   1_545  S
O1115     Zr1118   2.380       .  S
O1115      H1152   0.966       .  S
O1116     Zr1609   2.397       .  S
O1116     Zr1119   2.376       .  S
Zr1117     O1142   2.411       .  S
Zr1117     O1136   2.439       .  S
Zr1117     O1648   2.448   1_545  S
Zr1117     O1132   2.435       .  S
Zr1117     O1123   2.398       .  S
Zr1117     O1124   2.407       .  S
Zr1117     O1125   2.377       .  S
Zr1117     O1630   2.384   1_545  S
Zr1118     O1137   2.435       .  S
Zr1118     O1130   2.426       .  S
Zr1118     O1131   2.486       .  S
Zr1118     O1124   2.392       .  S
Zr1118     O1125   2.387       .  S
Zr1119     O1121   2.433       .  S
Zr1119     O1143   2.436       .  S
Zr1119     O1145   2.470       .  S
Zr1119     O1618   2.378       .  S
Zr1119     O1627   2.376       .  S
Zr1119     O1126   2.390       .  S
Zr1120     O1146   2.436       .  S
Zr1120     O1147   2.436       .  S
Zr1120     O1122   2.439       .  S
Zr1120     O1123   2.390       .  S
Zr1120     O1124   2.388       .  S
O1121      H1158   0.990       .  S
O1122      H1153   0.990       .  S
O1122      H1167   0.990       .  S
O1123     Zr1623   2.374   1_545  S
O1124      H1150   0.966       .  S
O1126     Zr1621   2.378       .  S
O1126      H1151   0.964       .  S
C1127      C1175   1.488       .  S
C1128      C1198   1.498       .  S
C1129      C1182   1.500       .  S
O1130      H1166   0.990       .  S
O1131      C1133   1.299       .  A
O1132      C1133   1.284       .  A
O1134     Zr1135   2.439       .  S
O1134      H1163   0.991       .  S
Zr1135     O1642   2.437       .  S
Zr1135     O1139   2.440       .  S
Zr1135     O1140   2.421       .  S
O1137      H1154   0.990       .  S
O1138     Zr1639   2.438       .  S
O1138      H1659   0.990       .  S
O1139      H1159   0.990       .  S
O1139      H1168   0.990       .  S
O1140      C1141   1.283       .  A
O1142      H1161   0.990       .  S
O1142      H1165   0.989       .  S
O1143      H1157   0.990       .  S
O1143      H1164   0.990       .  S
O1144     Zr1621   2.438       .  S
O1144      C1148   1.285       .  A
O1145      C1148   1.295       .  A
O1146      H1156   0.990       .  S
O1147      H1160   0.989       .  S
H1155      O1642   0.990       .  S
N1171      C1175   1.369       .  A
N1171      C1172   1.369       .  A
C1172      C1173   1.375       .  A
C1172      C1225   1.479       .  S
C1173      C1174   1.359       .  A
C1173      H1176   1.083       .  S
C1174      C1175   1.386       .  A
C1174      H1177   1.082       .  S
N1178      C1182   1.376       .  A
N1178      C1179   1.363       .  A
C1179      C1180   1.379       .  A
C1179      C1215   1.485       .  S
C1180      C1181   1.370       .  A
C1180      H1183   1.083       .  S
C1181      C1182   1.386       .  A
C1181      H1184   1.083       .  S
C1185      C1186   1.417       .  A
C1185      C1190   1.410       .  A
C1185      C1212   1.503       .  S
C1186      C1187   1.415       .  A
C1186      H1191   1.078       .  S
C1187      C1188   1.411       .  A
C1187      C1222   1.518       .  S
C1188      C1189   1.405       .  A
C1188      H1192   1.081       .  S
C1189      C1190   1.406       .  A
C1189      C1205   1.504       .  S
N1194      C1198   1.381       .  A
N1194      C1195   1.369       .  A
C1195      C1196   1.375       .  A
C1195      C1202   1.482       .  S
C1196      C1197   1.358       .  A
C1196      H1199   1.083       .  S
C1197      C1198   1.387       .  A
C1197      H1200   1.083       .  S
C1201      C1206   1.404       .  A
C1201      H1208   1.082       .  S
C1202      C1203   1.405       .  A
C1203      C1204   1.400       .  A
C1203     Br1210   1.919       .  S
C1204      H1209   1.080       .  S
C1205      C1206   1.419       .  A
C1206     Br1207   1.922       .  S
C1211      C1212   1.406       .  A
C1211      C1216   1.397   1_655  A
C1211      H1218   1.080       .  S
C1213      C1214   1.409       .  A
C1213     Br1220   1.919       .  S
C1214      C1215   1.405       .  A
C1214      H1219   1.083       .  S
C1216     Br1217   1.921   1_455  S
C1221      C1222   1.416       .  A
C1221      C1226   1.402       .  A
C1221      H1228   1.083       .  S
C1222      C1223   1.425       .  A
C1223      C1224   1.405       .  A
C1223     Br1230   1.917       .  S
C1224      C1225   1.399       .  A
C1224      H1229   1.084       .  S
C1225      C1226   1.404       .  A
C1226     Br1227   1.920       .  S
C1231      C1232   1.409       .  A
C1231      C1236   1.402       .  A
C1231      H1238   1.083       .  S
C1232      C1233   1.419       .  A
C1233      C1234   1.399       .  A
C1233     Br1240   1.924       .  S
C1234      C1235   1.400       .  A
C1234      H1239   1.084       .  S
C1235      C1236   1.406       .  A
C1236     Br1237   1.917       .  S
C1241      C1242   1.407       .  A
C1241      C1246   1.395       .  A
C1241      H1248   1.083       .  S
C1242      C1243   1.417       .  A
C1243      C1244   1.406       .  A
C1243     Br1250   1.919       .  S
C1244      C1245   1.401       .  A
C1244      H1249   1.083       .  S
C1245      C1246   1.408       .  A
C1246     Br1247   1.923       .  S
C1251      C1252   1.400       .  A
C1251      C1256   1.398       .  A
C1251      H1258   1.085       .  S
C1252      C1253   1.403       .  A
C1253      C1254   1.401       .  A
C1253     Br1260   1.919       .  S
C1254      C1255   1.411       .  A
C1254      H1259   1.083       .  S
C1255      C1256   1.421       .  A
C1256     Br1257   1.926       .  S
N1261      C1265   1.378       .  A
N1261      C1262   1.362       .  A
N1261      C1385   1.457       .  S
C1262      C1263   1.379       .  A
C1262      C1504   1.474       .  S
C1263      C1264   1.362       .  A
C1263      H1266   1.083       .  S
C1264      C1265   1.383       .  A
C1264      H1267   1.083       .  S
C1265      C1314   1.492       .  S
N1268      C1272   1.372       .  A
N1268      C1269   1.358       .  A
N1268      C1400   1.454       .  S
C1269      C1270   1.379       .  A
C1269      C1497   1.478       .  S
C1270      C1271   1.370       .  A
C1270      H1273   1.083       .  S
C1271      C1272   1.386       .  A
C1271      H1274   1.083       .  S
C1272      C1315   1.495       .  S
C1275      C1276   1.406       .  A
C1275      C1280   1.407       .  A
C1275      C1494   1.492       .  S
C1276      C1277   1.405       .  A
C1276      H1281   1.084       .  S
C1277      C1278   1.401       .  A
C1277      C1484   1.492       .  S
C1278      C1279   1.408       .  A
C1278      H1282   1.082       .  S
C1279      C1280   1.407       .  A
C1279      C1507   1.495       .  S
C1280      H1283   1.081       .  S
N1284      C1288   1.362       .  A
N1284      C1285   1.360       .  A
N1284      C1393   1.443       .  S
C1285      C1286   1.377       .  A
C1285      C1487   1.473       .  S
C1286      C1287   1.366       .  A
C1286      H1289   1.083       .  S
C1287      C1288   1.388       .  A
C1287      H1290   1.083       .  S
C1288      C1313   1.487       .  S
Zr1291     O1292   2.436       .  S
Zr1291     O1293   2.443       .  S
Zr1291     O1798   2.411   1_545  S
Zr1291     O1297   2.411       .  S
Zr1291     O1803   2.381   1_545  S
Zr1291     O1300   2.387       .  S
Zr1291     O1301   2.405   1_545  S
Zr1291     O1302   2.399       .  S
O1292      H1348   0.988       .  S
O1292      H1356   0.988       .  S
O1294     Zr1795   2.412       .  S
O1294      C1315   1.279       .  A
O1295      C1314   1.298       .  A
O1296      C1315   1.298       .  A
O1297      C1314   1.279       .  A
O1298      C1313   1.282       .  A
O1299     Zr1795   2.379       .  S
O1300      H1335   0.966       .  S
O1301     Zr1556   2.367   1_556  S
O1301      H1338   0.965       .  S
Zr1303     O1328   2.411       .  S
Zr1303     O1322   2.441       .  S
Zr1303     O1330   2.444       .  S
Zr1303     O1822   2.447   1_545  S
Zr1303     O1309   2.401       .  S
Zr1303     O1814   2.406   1_545  S
Zr1303     O1311   2.377   1_545  S
Zr1303     O1312   2.383       .  S
Zr1304     O1323   2.436       .  S
Zr1304     O1316   2.431       .  S
Zr1304     O1317   2.448       .  S
Zr1304     O1553   2.367       .  S
Zr1304     O1310   2.381       .  S
Zr1304     O1815   2.395       .  S
Zr1305     O1307   2.434       .  S
Zr1305     O1329   2.438       .  S
Zr1305     O1331   2.461       .  S
Zr1305     O1309   2.387       .  S
Zr1305     O1312   2.377       .  S
Zr1306     O1836   2.438       .  S
Zr1306     O1333   2.436       .  S
Zr1306     O1308   2.436       .  S
O1307      H1344   0.990       .  S
O1308      H1339   0.990       .  S
O1310     Zr1807   2.405       .  S
O1310      H1336   0.965       .  S
O1311     Zr1808   2.395       .  S
O1311     Zr1321   2.370   1_565  S
O1312     Zr1321   2.377       .  S
O1312      H1337   0.965       .  S
O1317      C1319   1.290       .  A
O1318     Zr1807   2.452       .  S
O1318      C1319   1.287       .  A
C1319      N1446   1.456       .  S
O1320      H1349   0.990       .  S
Zr1321     O1324   2.436       .  S
Zr1321     O1325   2.433       .  S
Zr1321     O1326   2.431       .  S
O1322      C1327   1.285       .  A
O1323      H1340   0.990       .  S
O1324      H1341   0.990   1_545  S
O1325      H1345   0.989       .  S
O1325      H1354   0.989       .  S
O1326      C1327   1.284       .  A
C1327      N1423   1.444       .  S
O1329      H1343   0.990       .  S
O1330      C1334   1.286       .  A
O1331      C1334   1.293       .  A
O1332     Zr1810   2.436       .  S
O1332      H1594   0.990       .  S
O1333      H1346   0.990       .  S
C1334      N1430   1.455       .  S
H1342      O1584   0.990   1_556  S
Zr1357     O1358   2.435       .  S
Zr1357     O1359   2.455       .  S
Zr1357     O1360   2.418       .  S
Zr1357     O1867   2.424   1_545  S
Zr1357     O1365   2.378       .  S
Zr1357     O1366   2.390   1_545  S
Zr1357     O1367   2.405       .  S
Zr1357     O1872   2.401   1_545  S
O1358      H1414   0.988   1_545  S
O1359      C1379   1.288       .  A
O1360      C1381   1.281       .  A
O1361     Zr1371   2.462       .  S
O1361      C1380   1.295       .  A
O1362     Zr1370   2.480       .  S
O1362      C1381   1.297       .  A
O1363     Zr1861   2.431       .  S
O1363      C1380   1.283       .  A
O1364     Zr1372   2.399       .  S
O1364      C1379   1.279       .  A
O1365     Zr1370   2.377       .  S
O1365     Zr1372   2.363       .  S
O1366     Zr1875   2.381       .  S
O1366     Zr1372   2.361   1_565  S
O1366      H1401   0.966       .  S
O1367     Zr1370   2.382       .  S
O1367      H1404   0.966       .  S
O1368     Zr1861   2.397       .  S
O1368     Zr1371   2.379       .  S
Zr1369     O1394   2.417       .  S
Zr1369     O1388   2.441       .  S
Zr1369     O1900   2.442   1_545  S
Zr1369     O1384   2.432       .  S
Zr1369     O1375   2.397       .  S
Zr1369     O1376   2.400       .  S
Zr1369     O1377   2.381       .  S
Zr1369     O1882   2.378   1_545  S
Zr1370     O1389   2.437       .  S
Zr1370     O1382   2.427       .  S
Zr1370     O1383   2.485       .  S
Zr1370     O1376   2.392       .  S
Zr1370     O1377   2.387       .  S
Zr1371     O1373   2.435       .  S
Zr1371     O1395   2.436       .  S
Zr1371     O1397   2.468       .  S
Zr1371     O1870   2.380       .  S
Zr1371     O1879   2.380       .  S
Zr1371     O1378   2.386       .  S
Zr1372     O1398   2.438       .  S
Zr1372     O1399   2.437       .  S
Zr1372     O1374   2.438       .  S
Zr1372     O1375   2.384       .  S
Zr1372     O1376   2.386       .  S
O1373      H1410   0.990       .  S
O1374      H1405   0.990       .  S
O1374      H1419   0.990       .  S
O1375     Zr1875   2.378   1_545  S
O1376      H1402   0.966       .  S
O1378     Zr1873   2.379       .  S
O1378      H1403   0.964       .  S
C1379      C1427   1.490       .  S
C1380      C1450   1.497       .  S
C1381      C1434   1.498       .  S
O1382      H1418   0.990       .  S
O1383      C1385   1.299       .  A
O1384      C1385   1.283       .  A
O1386     Zr1387   2.441       .  S
O1386      H1415   0.990       .  S
Zr1387     O1894   2.437       .  S
Zr1387     O1391   2.439       .  S
Zr1387     O1392   2.433       .  S
O1389      H1406   0.990       .  S
O1390     Zr1891   2.437       .  S
O1390      H1911   0.990       .  S
O1391      H1411   0.990       .  S
O1391      H1420   0.989       .  S
O1392      C1393   1.286       .  A
O1394      H1413   0.990       .  S
O1394      H1417   0.989       .  S
O1395      H1409   0.990       .  S
O1395      H1416   0.990       .  S
O1396     Zr1873   2.434       .  S
O1396      C1400   1.284       .  A
O1397      C1400   1.295       .  A
O1398      H1408   0.990       .  S
O1399      H1412   0.990       .  S
H1407      O1894   0.990       .  S
N1423      C1427   1.369       .  A
N1423      C1424   1.369       .  A
C1424      C1425   1.374       .  A
C1424      C1477   1.479       .  S
C1425      C1426   1.357       .  A
C1425      H1428   1.083       .  S
C1426      C1427   1.389       .  A
C1426      H1429   1.082       .  S
N1430      C1434   1.375       .  A
N1430      C1431   1.365       .  A
C1431      C1432   1.379       .  A
C1431      C1467   1.487       .  S
C1432      C1433   1.369       .  A
C1432      H1435   1.083       .  S
C1433      C1434   1.386       .  A
C1433      H1436   1.083       .  S
C1437      C1438   1.415       .  A
C1437      C1442   1.410       .  A
C1437      C1464   1.502       .  S
C1438      C1439   1.411       .  A
C1438      H1443   1.078       .  S
C1439      C1440   1.414       .  A
C1439      C1474   1.518       .  S
C1440      C1441   1.407       .  A
C1440      H1444   1.081       .  S
C1441      C1442   1.407       .  A
C1441      C1457   1.507       .  S
N1446      C1450   1.379       .  A
N1446      C1447   1.369       .  A
C1447      C1448   1.374       .  A
C1447      C1454   1.481       .  S
C1448      C1449   1.357       .  A
C1448      H1451   1.083       .  S
C1449      C1450   1.387       .  A
C1449      H1452   1.083       .  S
C1453      C1458   1.404       .  A
C1453      H1460   1.083       .  S
C1454      C1455   1.405       .  A
C1455      C1456   1.401       .  A
C1455     Br1462   1.920       .  S
C1456      H1461   1.080       .  S
C1457      C1458   1.420       .  A
C1458     Br1459   1.922       .  S
C1463      C1464   1.406       .  A
C1463      C1468   1.395   1_655  A
C1463      H1470   1.078       .  S
C1465      C1466   1.412       .  A
C1465     Br1472   1.919       .  S
C1466      C1467   1.408       .  A
C1466      H1471   1.083       .  S
C1468     Br1469   1.921   1_455  S
C1473      C1474   1.415       .  A
C1473      C1478   1.400       .  A
C1473      H1480   1.083       .  S
C1474      C1475   1.427       .  A
C1475      C1476   1.404       .  A
C1475     Br1482   1.918       .  S
C1476      C1477   1.399       .  A
C1476      H1481   1.084       .  S
C1477      C1478   1.403       .  A
C1478     Br1479   1.918       .  S
C1483      C1484   1.408       .  A
C1483      C1488   1.399       .  A
C1483      H1490   1.083       .  S
C1484      C1485   1.419       .  A
C1485      C1486   1.398       .  A
C1485     Br1492   1.924       .  S
C1486      C1487   1.400       .  A
C1486      H1491   1.084       .  S
C1487      C1488   1.404       .  A
C1488     Br1489   1.917       .  S
C1493      C1494   1.406       .  A
C1493      C1498   1.393       .  A
C1493      H1500   1.083       .  S
C1494      C1495   1.416       .  A
C1495      C1496   1.406       .  A
C1495     Br1502   1.918       .  S
C1496      C1497   1.401       .  A
C1496      H1501   1.083       .  S
C1497      C1498   1.409       .  A
C1498     Br1499   1.923       .  S
C1503      C1504   1.399       .  A
C1503      C1508   1.397       .  A
C1503      H1510   1.085       .  S
C1504      C1505   1.405       .  A
C1505      C1506   1.400       .  A
C1505     Br1512   1.918       .  S
C1506      C1507   1.410       .  A
C1506      H1511   1.083       .  S
C1507      C1508   1.420       .  A
C1508     Br1509   1.924       .  S
N1513      C1517   1.378       .  A
N1513      C1514   1.363       .  A
N1513      C1637   1.458       .  S
C1514      C1515   1.379       .  A
C1514      C1756   1.474       .  S
C1515      C1516   1.360       .  A
C1515      H1518   1.083       .  S
C1516      C1517   1.382       .  A
C1516      H1519   1.083       .  S
C1517      C1566   1.490       .  S
N1520      C1524   1.372       .  A
N1520      C1521   1.360       .  A
N1520      C1652   1.459       .  S
C1521      C1522   1.379       .  A
C1521      C1749   1.477       .  S
C1522      C1523   1.369       .  A
C1522      H1525   1.083       .  S
C1523      C1524   1.387       .  A
C1523      H1526   1.083       .  S
C1524      C1567   1.490       .  S
C1527      C1528   1.408       .  A
C1527      C1532   1.405       .  A
C1527      C1746   1.490       .  S
C1528      C1529   1.406       .  A
C1528      H1533   1.083       .  S
C1529      C1530   1.403       .  A
C1529      C1736   1.498       .  S
C1530      C1531   1.410       .  A
C1530      H1534   1.081       .  S
C1531      C1532   1.404       .  A
C1531      C1759   1.496       .  S
C1532      H1535   1.081       .  S
N1536      C1540   1.361       .  A
N1536      C1537   1.364   1_545  A
N1536      C1645   1.445       .  S
C1537      C1538   1.377   1_565  A
C1537      C1739   1.478       .  S
C1538      C1539   1.364       .  A
C1538      H1541   1.083       .  S
C1539      C1540   1.386       .  A
C1539      H1542   1.083       .  S
C1540      C1565   1.482       .  S
Zr1543     O1544   2.440       .  S
Zr1543     O1545   2.455       .  S
Zr1543     O1549   2.406       .  S
Zr1543     O1552   2.384       .  S
Zr1543     O1553   2.405       .  S
Zr1543     O1554   2.398       .  S
O1544      H1600   0.988       .  S
O1544      H1608   0.988       .  S
O1546      C1567   1.278       .  A
O1547     Zr1809   2.481       .  S
O1547      C1566   1.299       .  A
O1548     Zr1808   2.473       .  S
O1548      C1567   1.297       .  A
O1549      C1566   1.278       .  A
O1550     Zr1810   2.410       .  S
O1550      C1565   1.282       .  A
O1551     Zr1808   2.373       .  S
O1552     Zr1809   2.357       .  S
O1552      H1587   0.966       .  S
O1553     Zr1825   2.403       .  S
O1553      H1590   0.965       .  S
O1554     Zr1809   2.379       .  S
O1554     Zr1825   2.410       .  S
Zr1555     O1580   2.403       .  S
Zr1555     O1574   2.438       .  S
Zr1555     O1582   2.437       .  S
Zr1555     O1561   2.401       .  S
Zr1555     O1563   2.374       .  S
Zr1555     O1564   2.385       .  S
Zr1556     O1575   2.436       .  S
Zr1556     O1568   2.435       .  S
Zr1556     O1800   2.473   1_554  S
Zr1556     O1569   2.450       .  S
Zr1556     O1803   2.377   1_554  S
Zr1556     O1562   2.385       .  S
Zr1557     O1559   2.433       .  S
Zr1557     O1581   2.438       .  S
Zr1557     O1799   2.478   1_554  S
Zr1557     O1583   2.460       .  S
Zr1557     O1804   2.360   1_554  S
Zr1557     O1806   2.374   1_554  S
Zr1557     O1561   2.384       .  S
Zr1557     O1564   2.381       .  S
Zr1558     O1585   2.437   1_545  S
Zr1558     O1560   2.439   1_545  S
Zr1558     O1802   2.414   1_554  S
O1559      H1596   0.990       .  S
O1560      H1591   0.990       .  S
O1560      H1857   0.990   1_554  S
O1562      H1588   0.965       .  S
O1563     Zr1573   2.367       .  S
O1564     Zr1573   2.379       .  S
O1564      H1589   0.965       .  S
O1568      H1856   0.990       .  S
O1569      C1571   1.291       .  A
O1570      C1571   1.288       .  A
C1571      N1698   1.455       .  S
O1572     Zr1825   2.440       .  S
O1572      H1601   0.990       .  S
Zr1573     O1824   2.441   1_554  S
Zr1573     O1576   2.436       .  S
Zr1573     O1577   2.435       .  S
Zr1573     O1578   2.446       .  S
Zr1573     O1805   2.411   1_554  S
Zr1573     O1806   2.404   1_554  S
O1574      C1579   1.284       .  A
O1575      H1592   0.990       .  S
O1575      H1859   0.990       .  S
O1576      H1593   0.990       .  S
O1577      H1597   0.990       .  S
O1577      H1606   0.990       .  S
O1578      C1579   1.287       .  A
C1579      N1675   1.448       .  S
O1581      H1595   0.990   1_554  S
O1582      C1586   1.283       .  A
O1583      C1586   1.293       .  A
O1585      H1598   0.989       .  S
C1586      N1682   1.453       .  S
H1604      O1820   0.990       .  S
H1605      O1812   0.990       .  S
H1607      O1827   0.990       .  S
Zr1609     O1610   2.439       .  S
Zr1609     O1611   2.459       .  S
Zr1609     O1612   2.415       .  S
Zr1609     O1617   2.380       .  S
Zr1609     O1618   2.389       .  S
Zr1609     O1619   2.404       .  S
O1610      H1666   0.988       .  S
O1611      C1631   1.288       .  A
O1612      C1633   1.281       .  A
O1613     Zr1623   2.456       .  S
O1613      C1632   1.294       .  A
O1614     Zr1622   2.471       .  S
O1614      C1633   1.295       .  A
O1615      C1632   1.282       .  A
O1616     Zr1624   2.408       .  S
O1616      C1631   1.282       .  A
O1617     Zr1622   2.373       .  S
O1617     Zr1624   2.362       .  S
O1618     Zr1624   2.362       .  S
O1618      H1653   0.966       .  S
O1619     Zr1622   2.381       .  S
O1619      H1656   0.966       .  S
O1620     Zr1623   2.382       .  S
Zr1621     O1646   2.408       .  S
Zr1621     O1640   2.439       .  S
Zr1621     O1636   2.441       .  S
Zr1621     O1627   2.398       .  S
Zr1621     O1628   2.405       .  S
Zr1621     O1629   2.376       .  S
Zr1622     O1641   2.434       .  S
Zr1622     O1634   2.427       .  S
Zr1622     O1635   2.478       .  S
Zr1622     O1628   2.388       .  S
Zr1622     O1629   2.389       .  S
Zr1623     O1625   2.434       .  S
Zr1623     O1647   2.436       .  S
Zr1623     O1649   2.469       .  S
Zr1623     O1630   2.390       .  S
Zr1624     O1650   2.436       .  S
Zr1624     O1651   2.437       .  S
Zr1624     O1626   2.439       .  S
Zr1624     O1627   2.382       .  S
Zr1624     O1628   2.390       .  S
O1625      H1662   0.991       .  S
O1626      H1657   0.991       .  S
O1626      H1671   0.990       .  S
O1628      H1654   0.967       .  S
O1630      H1655   0.964       .  S
C1631      C1679   1.494       .  S
C1632      C1702   1.494       .  S
C1633      C1686   1.493       .  S
O1634      H1670   0.990       .  S
O1635      C1637   1.297       .  A
O1636      C1637   1.285       .  A
O1638     Zr1639   2.440   1_565  S
O1638      H1667   0.990       .  S
Zr1639     O1643   2.439   1_545  S
Zr1639     O1644   2.421   1_545  S
O1641      H1658   0.990       .  S
O1643      H1663   0.990       .  S
O1643      H1672   0.989       .  S
O1644      C1645   1.282   1_565  A
O1646      H1665   0.990       .  S
O1646      H1669   0.990       .  S
O1647      H1661   0.989       .  S
O1647      H1668   0.990       .  S
O1648      C1652   1.287       .  A
O1649      C1652   1.295       .  A
O1650      H1660   0.990       .  S
O1651      H1664   0.990       .  S
N1675      C1679   1.373       .  A
N1675      C1676   1.370       .  A
C1676      C1677   1.374       .  A
C1676      C1729   1.478       .  S
C1677      C1678   1.356       .  A
C1677      H1680   1.083       .  S
C1678      C1679   1.389       .  A
C1678      H1681   1.083       .  S
N1682      C1686   1.371       .  A
N1682      C1683   1.361       .  A
C1683      C1684   1.378       .  A
C1683      C1719   1.482       .  S
C1684      C1685   1.369       .  A
C1684      H1687   1.082       .  S
C1685      C1686   1.386       .  A
C1685      H1688   1.083       .  S
C1689      C1690   1.412       .  A
C1689      C1694   1.406       .  A
C1689      C1716   1.499       .  S
C1690      C1691   1.411       .  A
C1690      H1695   1.075       .  S
C1691      C1692   1.416       .  A
C1691      C1726   1.521       .  S
C1692      C1693   1.409       .  A
C1692      H1696   1.080       .  S
C1693      C1694   1.407       .  A
C1693      C1709   1.507       .  S
N1698      C1702   1.379       .  A
N1698      C1699   1.369       .  A
C1699      C1700   1.374       .  A
C1699      C1706   1.480       .  S
C1700      C1701   1.357       .  A
C1700      H1703   1.083       .  S
C1701      C1702   1.387       .  A
C1701      H1704   1.083       .  S
C1705      C1710   1.403       .  A
C1705      H1712   1.083       .  S
C1706      C1707   1.406       .  A
C1707      C1708   1.399       .  A
C1707     Br1714   1.919       .  S
C1708      H1713   1.081       .  S
C1709      C1710   1.420       .  A
C1710     Br1711   1.922       .  S
C1715      C1716   1.406       .  A
C1715      C1720   1.394   1_655  A
C1715      H1722   1.081       .  S
C1717      C1718   1.407       .  A
C1717     Br1724   1.919       .  S
C1718      C1719   1.403       .  A
C1718      H1723   1.083       .  S
C1720     Br1721   1.921   1_455  S
C1725      C1726   1.416       .  A
C1725      C1730   1.401       .  A
C1725      H1732   1.082       .  S
C1726      C1727   1.429       .  A
C1727      C1728   1.404       .  A
C1727     Br1734   1.920       .  S
C1728      C1729   1.399       .  A
C1728      H1733   1.084       .  S
C1729      C1730   1.403       .  A
C1730     Br1731   1.918       .  S
C1735      C1736   1.410       .  A
C1735      C1740   1.401       .  A
C1735      H1742   1.083       .  S
C1736      C1737   1.421       .  A
C1737      C1738   1.399       .  A
C1737     Br1744   1.924       .  S
C1738      C1739   1.399       .  A
C1738      H1743   1.084       .  S
C1739      C1740   1.406       .  A
C1740     Br1741   1.918   1_565  S
C1745      C1746   1.405       .  A
C1745      C1750   1.391       .  A
C1745      H1752   1.083       .  S
C1746      C1747   1.416       .  A
C1747      C1748   1.406       .  A
C1747     Br1754   1.919       .  S
C1748      C1749   1.402       .  A
C1748      H1753   1.083       .  S
C1749      C1750   1.408       .  A
C1750     Br1751   1.922       .  S
C1755      C1756   1.400       .  A
C1755      C1760   1.398       .  A
C1755      H1762   1.085       .  S
C1756      C1757   1.404       .  A
C1757      C1758   1.399       .  A
C1757     Br1764   1.916       .  S
C1758      C1759   1.409       .  A
C1758      H1763   1.083       .  S
C1759      C1760   1.422       .  A
C1760     Br1761   1.926       .  S
N1765      C1769   1.377       .  A
N1765      C1766   1.363       .  A
N1765      C1889   1.458       .  S
C1766      C1767   1.379       .  A
C1766      C2008   1.474       .  S
C1767      C1768   1.361       .  A
C1767      H1770   1.083       .  S
C1768      C1769   1.382       .  A
C1768      H1771   1.083       .  S
C1769      C1818   1.489       .  S
N1772      C1776   1.371       .  A
N1772      C1773   1.361       .  A
N1772      C1904   1.455       .  S
C1773      C1774   1.379       .  A
C1773      C2001   1.481       .  S
C1774      C1775   1.370       .  A
C1774      H1777   1.082       .  S
C1775      C1776   1.386       .  A
C1775      H1778   1.083       .  S
C1776      C1819   1.492       .  S
C1779      C1780   1.409       .  A
C1779      C1784   1.406       .  A
C1779      C1998   1.494       .  S
C1780      C1781   1.407       .  A
C1780      H1785   1.083       .  S
C1781      C1782   1.402       .  A
C1781      C1988   1.498       .  S
C1782      C1783   1.409       .  A
C1782      H1786   1.081       .  S
C1783      C1784   1.406       .  A
C1783      C2011   1.499       .  S
C1784      H1787   1.080       .  S
N1788      C1792   1.362       .  A
N1788      C1789   1.364   1_545  A
N1788      C1897   1.446       .  S
C1789      C1790   1.377   1_565  A
C1789      C1991   1.479       .  S
C1790      C1791   1.366       .  A
C1790      H1793   1.083       .  S
C1791      C1792   1.387       .  A
C1791      H1794   1.083       .  S
C1792      C1817   1.484       .  S
Zr1795     O1796   2.438       .  S
Zr1795     O1797   2.443       .  S
Zr1795     O1801   2.405       .  S
Zr1795     O1804   2.388       .  S
Zr1795     O1805   2.401       .  S
Zr1795     O1806   2.393       .  S
O1796      H1852   0.988       .  S
O1796      H1860   0.988       .  S
O1798      C1819   1.279       .  A
O1799      C1818   1.298       .  A
O1800      C1819   1.296       .  A
O1801      C1818   1.278       .  A
O1802      C1817   1.283       .  A
O1804      H1839   0.966       .  S
O1805      H1842   0.966       .  S
Zr1807     O1832   2.408       .  S
Zr1807     O1826   2.441       .  S
Zr1807     O1834   2.441       .  S
Zr1807     O1813   2.401       .  S
Zr1807     O1815   2.375       .  S
Zr1807     O1816   2.382       .  S
Zr1808     O1827   2.435       .  S
Zr1808     O1820   2.435       .  S
Zr1808     O1821   2.460       .  S
Zr1808     O1814   2.381       .  S
Zr1809     O1811   2.433       .  S
Zr1809     O1833   2.438       .  S
Zr1809     O1835   2.467       .  S
Zr1809     O1813   2.386       .  S
Zr1809     O1816   2.372       .  S
Zr1810     O1837   2.438   1_545  S
Zr1810     O1812   2.439   1_545  S
O1811      H1848   0.990       .  S
O1812      H1843   0.990       .  S
O1814      H1840   0.965       .  S
O1815     Zr1825   2.366       .  S
O1816     Zr1825   2.381       .  S
O1816      H1841   0.964       .  S
O1821      C1823   1.293       .  A
O1822      C1823   1.286       .  A
C1823      N1950   1.456       .  S
O1824      H1853   0.990       .  S
Zr1825     O1828   2.439       .  S
Zr1825     O1829   2.435       .  S
Zr1825     O1830   2.435       .  S
O1826      C1831   1.285       .  A
O1827      H1844   0.990       .  S
O1828      H1845   0.990       .  S
O1829      H1849   0.990       .  S
O1829      H1858   0.990       .  S
O1830      C1831   1.285       .  A
C1831      N1927   1.444       .  S
O1833      H1847   0.990       .  S
O1834      C1838   1.284       .  A
O1835      C1838   1.295       .  A
O1837      H1850   0.990       .  S
C1838      N1934   1.456       .  S
Zr1861     O1862   2.438       .  S
Zr1861     O1863   2.450       .  S
Zr1861     O1864   2.417       .  S
Zr1861     O1869   2.378       .  S
Zr1861     O1870   2.391       .  S
Zr1861     O1871   2.406       .  S
O1862      H1918   0.988       .  S
O1863      C1883   1.287       .  A
O1864      C1885   1.281       .  A
O1865     Zr1875   2.461       .  S
O1865      C1884   1.295       .  A
O1866     Zr1874   2.489       .  S
O1866      C1885   1.300       .  A
O1867      C1884   1.281       .  A
O1868     Zr1876   2.403       .  S
O1868      C1883   1.280       .  A
O1869     Zr1874   2.375       .  S
O1869     Zr1876   2.360       .  S
O1870     Zr1876   2.362       .  S
O1870      H1905   0.966       .  S
O1871     Zr1874   2.381       .  S
O1871      H1908   0.966       .  S
O1872     Zr1875   2.378       .  S
Zr1873     O1898   2.414       .  S
Zr1873     O1892   2.443       .  S
Zr1873     O1888   2.436       .  S
Zr1873     O1879   2.405       .  S
Zr1873     O1880   2.401       .  S
Zr1873     O1881   2.375       .  S
Zr1874     O1893   2.433       .  S
Zr1874     O1886   2.428       .  S
Zr1874     O1887   2.483       .  S
Zr1874     O1880   2.395       .  S
Zr1874     O1881   2.383       .  S
Zr1875     O1877   2.434       .  S
Zr1875     O1899   2.437       .  S
Zr1875     O1901   2.465       .  S
Zr1875     O1882   2.384       .  S
Zr1876     O1902   2.438       .  S
Zr1876     O1903   2.438       .  S
Zr1876     O1878   2.437       .  S
Zr1876     O1879   2.389       .  S
Zr1876     O1880   2.387       .  S
O1877      H1914   0.990       .  S
O1878      H1909   0.990       .  S
O1878      H1923   0.991       .  S
O1880      H1906   0.966       .  S
O1882      H1907   0.964       .  S
C1883      C1931   1.486       .  S
C1884      C1954   1.493       .  S
C1885      C1938   1.501       .  S
O1886      H1922   0.990       .  S
O1887      C1889   1.298       .  A
O1888      C1889   1.284       .  A
O1890     Zr1891   2.440   1_565  S
O1890      H1919   0.991       .  S
Zr1891     O1895   2.443   1_545  S
Zr1891     O1896   2.420   1_545  S
O1893      H1910   0.990       .  S
O1895      H1915   0.990       .  S
O1895      H1924   0.990       .  S
O1896      C1897   1.282   1_565  A
O1898      H1917   0.990       .  S
O1898      H1921   0.990       .  S
O1899      H1913   0.990       .  S
O1899      H1920   0.990       .  S
O1900      C1904   1.286       .  A
O1901      C1904   1.294       .  A
O1902      H1912   0.990       .  S
O1903      H1916   0.990       .  S
N1927      C1931   1.367       .  A
N1927      C1928   1.367       .  A
C1928      C1929   1.375       .  A
C1928      C1981   1.478       .  S
C1929      C1930   1.359       .  A
C1929      H1932   1.083       .  S
C1930      C1931   1.387       .  A
C1930      H1933   1.082       .  S
N1934      C1938   1.376       .  A
N1934      C1935   1.363       .  A
C1935      C1936   1.379       .  A
C1935      C1971   1.486       .  S
C1936      C1937   1.370       .  A
C1936      H1939   1.083       .  S
C1937      C1938   1.386       .  A
C1937      H1940   1.083       .  S
C1941      C1942   1.417       .  A
C1941      C1946   1.410       .  A
C1941      C1968   1.504       .  S
C1942      C1943   1.412       .  A
C1942      H1947   1.078       .  S
C1943      C1944   1.410       .  A
C1943      C1978   1.516       .  S
C1944      C1945   1.405       .  A
C1944      H1948   1.081       .  S
C1945      C1946   1.408       .  A
C1945      C1961   1.505       .  S
N1950      C1954   1.379       .  A
N1950      C1951   1.366       .  A
C1951      C1952   1.374       .  A
C1951      C1958   1.475       .  S
C1952      C1953   1.357       .  A
C1952      H1955   1.083       .  S
C1953      C1954   1.387       .  A
C1953      H1956   1.083       .  S
C1957      C1962   1.403       .  A
C1957      H1964   1.083       .  S
C1958      C1959   1.404       .  A
C1959      C1960   1.399       .  A
C1959     Br1966   1.920       .  S
C1960      H1965   1.081       .  S
C1961      C1962   1.422       .  A
C1962     Br1963   1.923       .  S
C1967      C1968   1.407       .  A
C1967      C1972   1.397   1_655  A
C1967      H1974   1.080       .  S
C1969      C1970   1.410       .  A
C1969     Br1976   1.919       .  S
C1970      C1971   1.407       .  A
C1970      H1975   1.083       .  S
C1972     Br1973   1.921   1_455  S
C1977      C1978   1.415       .  A
C1977      C1982   1.400       .  A
C1977      H1984   1.083       .  S
C1978      C1979   1.425       .  A
C1979      C1980   1.404       .  A
C1979     Br1986   1.917       .  S
C1980      C1981   1.399       .  A
C1980      H1985   1.084       .  S
C1981      C1982   1.404       .  A
C1982     Br1983   1.919       .  S
C1987      C1988   1.409       .  A
C1987      C1992   1.402       .  A
C1987      H1994   1.083       .  S
C1988      C1989   1.420       .  A
C1989      C1990   1.398       .  A
C1989     Br1996   1.924       .  S
C1990      C1991   1.399       .  A
C1990      H1995   1.084       .  S
C1991      C1992   1.407       .  A
C1992     Br1993   1.917   1_565  S
C1997      C1998   1.405       .  A
C1997      C2002   1.393       .  A
C1997      H2004   1.083       .  S
C1998      C1999   1.417       .  A
C1999      C2000   1.408       .  A
C1999     Br2006   1.920       .  S
C2000      C2001   1.403       .  A
C2000      H2005   1.083       .  S
C2001      C2002   1.408       .  A
C2002     Br2003   1.921       .  S
C2007      C2008   1.399       .  A
C2007      C2012   1.398       .  A
C2007      H2014   1.085       .  S
C2008      C2009   1.404       .  A
C2009      C2010   1.400       .  A
C2009     Br2016   1.918       .  S
C2010      C2011   1.411       .  A
C2010      H2015   1.083       .  S
C2011      C2012   1.422       .  A
C2012     Br2013   1.925       .  S
