geometry optimzed in LAMMPS
_audit_creation_date              2020-11-30 
_audit_creation_method            'lammps2cif' 
_symmetry_space_group_name_H-M    'P1' 
_symmetry_Int_Tables_number       1 
_symmetry_cell_setting            triclinic 
loop_ 
_symmetry_equiv_pos_as_xyz 
  x,y,z 
_cell_length_a                    34.1235068756056 
_cell_length_b                    34.17423468714444 
_cell_length_c                    34.16372292067988 
_cell_angle_alpha                 90.2400858834041 
_cell_angle_beta                  89.89201588555841 
_cell_angle_gamma                 89.98044086759208 
loop_ 
_atom_site_label 
_atom_site_type_symbol 
_atom_site_fract_x 
_atom_site_fract_y 
_atom_site_fract_z 
_atom_site_charge 
C1          C  0.49819646  0.79281047  0.70817034     0.03720
C2          C  0.49832838  0.83298577  0.71895918    -0.12430
C3          C  0.49431684  0.86182804  0.69024243     0.01220
C4          C  0.49005789  0.84967790  0.65124530    -0.10950
C5          C  0.49350591  0.81058542  0.63912083     0.03710
C6          C  0.49667916  0.78180366  0.66805022    -0.10380
H7          H  0.50124313  0.84146221  0.74940102     0.09310
H8          H  0.48506545  0.87172939  0.62923241     0.06840
H9          H  0.49784253  0.75123248  0.65964944     0.06680
C10         C  0.50044680  0.67261358  0.82854948     0.03720
C11         C  0.49994429  0.63248274  0.81750322    -0.12430
C12         C  0.50152516  0.60339677  0.84622123     0.01220
C13         C  0.50323503  0.61529705  0.88551849    -0.10950
C14         C  0.50184743  0.65450098  0.89769472     0.03710
C15         C  0.50117699  0.68343175  0.86876727    -0.10380
H16         H  0.49840699  0.62421551  0.78690343     0.09310
H17         H  0.50540819  0.59299302  0.90768846     0.06840
H18         H  0.50117287  0.71400627  0.87723784     0.06680
C19         C  0.80968962  0.67324910  0.51792965     0.03720
C20         C  0.84984629  0.68405254  0.51678402    -0.12430
C21         C  0.87887541  0.65510174  0.51659535     0.01220
C22         C  0.86687282  0.61584691  0.51684404    -0.10950
C23         C  0.82756478  0.60407246  0.51813544     0.03710
C24         C  0.79871701  0.63320061  0.51890485    -0.10380
H25         H  0.85816974  0.71462416  0.51605941     0.09310
H26         H  0.88912828  0.59340822  0.51612396     0.06840
H27         H  0.76807308  0.62503417  0.52016914     0.06680
C28         C  0.68932503  0.79354877  0.51885368     0.03720
C29         C  0.64925542  0.78256047  0.52059547    -0.12430
C30         C  0.62013143  0.81139207  0.52211127     0.01220
C31         C  0.63195645  0.85065337  0.52292236    -0.10950
C32         C  0.67111004  0.86260756  0.51969890     0.03710
C33         C  0.70006825  0.83364026  0.51769566    -0.10380
H34         H  0.64106444  0.75194308  0.52079680     0.09310
H35         H  0.60964312  0.87291579  0.52560142     0.06840
H36         H  0.73061673  0.84195310  0.51544414     0.06680
C37         C  0.80870368  0.48262201  0.70770208     0.03720
C38         C  0.84891010  0.48359163  0.71826409    -0.12430
C39         C  0.87774401  0.48499538  0.68911365     0.01220
C40         C  0.86549687  0.48653693  0.65005207    -0.10950
C41         C  0.82619728  0.48406125  0.63842492     0.03710
C42         C  0.79750246  0.48213647  0.66769170    -0.10380
H43         H  0.85741566  0.48338575  0.74879346     0.09310
H44         H  0.88763721  0.48937887  0.62764350     0.06840
H45         H  0.76684456  0.48047567  0.65969498     0.06680
C46         C  0.68919773  0.48202199  0.82898857     0.03720
C47         C  0.64905779  0.48118082  0.81825416    -0.12430
C48         C  0.62003265  0.48014868  0.84725718     0.01220
C49         C  0.63199657  0.47894055  0.88644143    -0.10950
C50         C  0.67133412  0.48071492  0.89814961     0.03710
C51         C  0.70017033  0.48236928  0.86901487    -0.10380
H52         H  0.64073165  0.48133031  0.78767436     0.09310
H53         H  0.60968132  0.47688935  0.90879028     0.06840
H54         H  0.73080656  0.48375522  0.87715347     0.06680
C55         C  0.80954589  0.79156605  0.01870941     0.03720
C56         C  0.79821813  0.83147574  0.01842474    -0.12430
C57         C  0.82684935  0.86072420  0.01991061     0.01220
C58         C  0.86623329  0.84914168  0.02207893    -0.10950
C59         C  0.87850354  0.80998753  0.02089300     0.03710
C60         C  0.84968960  0.78089445  0.01945307    -0.10380
H61         H  0.76750951  0.83940188  0.01713291     0.09310
H62         H  0.88835307  0.87161042  0.02434679     0.06840
H63         H  0.85813451  0.75033763  0.01906953     0.06680
C64         C  0.69037957  0.67100551  0.01848485     0.03720
C65         C  0.65034338  0.68205496  0.01823883    -0.12430
C66         C  0.62123368  0.65325361  0.01829076     0.01220
C67         C  0.63303079  0.61396358  0.01848012    -0.10950
C68         C  0.67232802  0.60200069  0.01870330     0.03710
C69         C  0.70131241  0.63097481  0.01873713    -0.10380
H70         H  0.64220268  0.71269378  0.01797425     0.09310
H71         H  0.61061136  0.59169472  0.01849187     0.06840
H72         H  0.73196759  0.62274283  0.01904769     0.06680
C73         C  0.80811410  0.98249958  0.82830361     0.03720
C74         C  0.79680132  0.98188419  0.86824944    -0.12430
C75         C  0.82556937  0.98146032  0.89743296     0.01220
C76         C  0.86494777  0.98174985  0.88566512    -0.10950
C77         C  0.87713739  0.98259045  0.84647696     0.03710
C78         C  0.84822739  0.98285380  0.81744576    -0.10380
H79         H  0.76606988  0.98166312  0.87623588     0.09310
H80         H  0.88717554  0.98128717  0.90807151     0.06840
H81         H  0.85655679  0.98332470  0.78684223     0.06680
C82         C  0.68919413  0.98220188  0.70789373     0.03720
C83         C  0.64915058  0.98116391  0.71888659    -0.12430
C84         C  0.62019141  0.97869877  0.68998531     0.01220
C85         C  0.63228181  0.97668028  0.65079826    -0.10950
C86         C  0.67148079  0.98016560  0.63887447     0.03710
C87         C  0.70031121  0.98244459  0.66791465    -0.10380
H88         H  0.64090816  0.98209514  0.74950924     0.09310
H89         H  0.61011825  0.97301486  0.62855942     0.06840
H90         H  0.73094966  0.98427419  0.65978519     0.06680
C91         C  0.99786181  0.79262133  0.82842931     0.03720
C92         C  0.99702529  0.83271911  0.81775493    -0.12430
C93         C  0.99523432  0.86167655  0.84682772     0.01220
C94         C  0.99288661  0.84967714  0.88591024    -0.10950
C95         C  0.99568788  0.81054497  0.89761956     0.03710
C96         C  0.99815933  0.78173064  0.86847152    -0.10380
H97         H  0.99762919  0.84105798  0.78720691     0.09310
H98         H  0.98948832  0.87185030  0.90826775     0.06840
H99         H  0.00007516  0.75118690  0.87659962     0.06680
C100        C  0.99834435  0.67281378  0.70718464     0.03720
C101        C  0.99925202  0.63274278  0.71790104    -0.12430
C102        C  0.00060505  0.60375815  0.68886616     0.01220
C103        C  0.00223190  0.61567031  0.64971861    -0.10950
C104        C  0.99990169  0.65481157  0.63795842     0.03710
C105        C  0.99795426  0.68368603  0.66711364    -0.10380
H106        H  0.99900952  0.62444390  0.74846640     0.09310
H107        H  0.00503247  0.59343005  0.62735560     0.06840
H108        H  0.99634823  0.71424199  0.65897261     0.06680
C109        C  0.50004147  0.17212995  0.70869586     0.03720
C110        C  0.49914697  0.18283166  0.66859727    -0.12430
C111        C  0.50248880  0.15403284  0.63952241     0.01220
C112        C  0.50661801  0.11503333  0.65134746    -0.10950
C113        C  0.50425203  0.10310171  0.69047593     0.03710
C114        C  0.50190594  0.13209091  0.71945816    -0.10380
H115        H  0.49618968  0.21325972  0.66035109     0.09310
H116        H  0.51086785  0.09289987  0.62906905     0.06840
H117        H  0.50156723  0.12378276  0.75001649     0.06680
C118        C  0.49852771  0.29274512  0.82939971     0.03720
C119        C  0.49731812  0.33275408  0.81843484    -0.12430
C120        C  0.49658131  0.36198879  0.84723315     0.01220
C121        C  0.49553511  0.35037534  0.88656833    -0.10950
C122        C  0.49744645  0.31123896  0.89853849     0.03710
C123        C  0.49928636  0.28221192  0.86954773    -0.10380
H124        H  0.49704305  0.34085352  0.78781854     0.09310
H125        H  0.49359297  0.37277897  0.90886910     0.06840
H126        H  0.50115404  0.25173415  0.87792186     0.06680
O127        O  0.56053056  0.98034263  0.73097046    -0.72350
O128        O  0.43829847  0.98511449  0.73166978    -0.73330
O129        O  0.49704432  0.92160349  0.73109948    -0.61950
O130        O  0.50196125  0.04365293  0.73127819    -0.70360
O131        O  0.50157670  0.03875519  0.66687032    -0.69920
O132        O  0.49699267  0.92603546  0.66669181    -0.61170
O133        O  0.44269631  0.98476478  0.66724955    -0.73680
O134        O  0.55570565  0.98016378  0.66658709    -0.72460
Cu135      Cu  0.49946471  0.98266815  0.73425129     1.04560
Cu136      Cu  0.49923085  0.98241714  0.66542163     1.04330
C137        C  0.57692244  0.97959546  0.69707044     0.93850
C138        C  0.42166143  0.98579060  0.69794743     0.92980
C139        C  0.49611536  0.90504290  0.69724232     0.85130
C140        C  0.50272868  0.05995512  0.69743656     0.91400
C141        C  0.99536095  0.17234377  0.83018888     0.03720
C142        C  0.99267222  0.13174905  0.82005405    -0.12430
C143        C  0.00128260  0.10286769  0.84782325     0.01220
C144        C  0.00992604  0.11499762  0.88592198    -0.10950
C145        C  0.00111007  0.15271659  0.89890404     0.03710
C146        C  0.99191369  0.18091976  0.87094430    -0.10380
H147        H  0.98373690  0.12229204  0.79126922     0.09310
H148        H  0.01994362  0.09361667  0.90696847     0.06840
H149        H  0.98037625  0.20809098  0.88179296     0.06680
C150        C  0.99660860  0.29358975  0.70631869     0.03720
C151        C  0.99240059  0.33422434  0.71548752    -0.12430
C152        C  0.99961264  0.36269395  0.68713286     0.01220
C153        C  0.00695319  0.35016565  0.64890489    -0.10950
C154        C  0.99971291  0.31171781  0.63686342     0.03710
C155        C  0.99335141  0.28348456  0.66580199    -0.10380
H156        H  0.98304515  0.34431060  0.74388629     0.09310
H157        H  0.01549654  0.37161212  0.62728463     0.06840
H158        H  0.98523963  0.25454041  0.65626784     0.06680
C159        C  0.18847845  0.98224969  0.83124677     0.03720
C160        C  0.19912612  0.98461819  0.87142586    -0.12430
C161        C  0.17004172  0.98548904  0.90048684     0.01220
C162        C  0.13075859  0.98549456  0.88846527    -0.10950
C163        C  0.11904507  0.98255915  0.84924184     0.03710
C164        C  0.14829733  0.98046532  0.82049233    -0.10380
H165        H  0.22969614  0.98577876  0.87980558     0.09310
H166        H  0.10827338  0.98755309  0.91065386     0.06840
H167        H  0.14006025  0.97780796  0.78999462     0.06680
C168        C  0.30915618  0.98219436  0.70973937     0.03720
C169        C  0.34936807  0.98462879  0.72034516    -0.12430
C170        C  0.37829846  0.98692593  0.69125556     0.01220
C171        C  0.36611786  0.98888534  0.65218227    -0.10950
C172        C  0.32708057  0.98427608  0.64040111     0.03710
C173        C  0.29838225  0.98072346  0.66956815    -0.10380
H174        H  0.35788156  0.98484749  0.75086472     0.09310
H175        H  0.38813835  0.99326640  0.62987560     0.06840
H176        H  0.26794331  0.97728807  0.66131171     0.06680
O177        O  0.99683059  0.92600637  0.87068245    -0.72350
O178        O  0.99838966  0.03892215  0.87172285    -0.73330
O179        O  0.94139301  0.98316035  0.87030148    -0.61950
O180        O  0.05421512  0.98156484  0.87209113    -0.70360
O181        O  0.05970750  0.98169806  0.80774974    -0.69920
O182        O  0.93724906  0.98278776  0.80591199    -0.61170
O183        O  0.99915430  0.04317695  0.80721541    -0.73680
O184        O  0.99750568  0.92127048  0.80628069    -0.72460
Cu185      Cu  0.99767394  0.98239229  0.87262532     1.04560
Cu186      Cu  0.99846862  0.98224606  0.80378666     1.04330
C187        C  0.99650743  0.90486378  0.84003880     0.93850
C188        C  0.99941310  0.05976710  0.84105582     0.92980
C189        C  0.92047668  0.98294156  0.83963038     0.85130
C190        C  0.07578625  0.98174584  0.84178546     0.91400
C191        C  0.18872490  0.48125023  0.70520245     0.03720
C192        C  0.14857018  0.48228210  0.71617350    -0.12430
C193        C  0.11950898  0.48439385  0.68732944     0.01220
C194        C  0.13145391  0.48710286  0.64818233    -0.10950
C195        C  0.17062664  0.48435640  0.63614959     0.03710
C196        C  0.19949898  0.48128495  0.66504245    -0.10380
H197        H  0.14024788  0.48158349  0.74677076     0.09310
H198        H  0.10921924  0.49081304  0.62604516     0.06840
H199        H  0.23004966  0.47923964  0.65661123     0.06680
C200        C  0.30940454  0.48097082  0.82540408     0.03720
C201        C  0.34970277  0.48114399  0.81486916    -0.12430
C202        C  0.37834401  0.48593851  0.84380400     0.01220
C203        C  0.36587300  0.49089396  0.88253353    -0.10950
C204        C  0.32689591  0.48627561  0.89448245     0.03710
C205        C  0.29819891  0.48237234  0.86546478    -0.10380
H206        H  0.35838348  0.47810118  0.78449532     0.09310
H207        H  0.38765866  0.49736153  0.90455291     0.06840
H208        H  0.26758833  0.48076885  0.87372675     0.06680
O209        O  0.93773656  0.48378406  0.72946486    -0.72350
O210        O  0.05994746  0.48331035  0.72841891    -0.73330
O211        O  0.99936280  0.54424243  0.72956429    -0.61950
O212        O  0.99863159  0.42232630  0.72788763    -0.70360
O213        O  0.99751791  0.42671933  0.66340216    -0.69920
O214        O  0.99924156  0.53943254  0.66517078    -0.61170
O215        O  0.05496385  0.48242381  0.66403958    -0.73680
O216        O  0.94203325  0.48397048  0.66504545    -0.72460
Cu217      Cu  0.99888603  0.48330029  0.73183709     1.04560
Cu218      Cu  0.99839391  0.48312979  0.66298114     1.04330
C219        C  0.92106079  0.48430006  0.69577141     0.93850
C220        C  0.07625889  0.48331660  0.69448320     0.92980
C221        C  0.99976944  0.56060340  0.69577702     0.85130
C222        C  0.99833531  0.40580632  0.69397939     0.91400
O223        O  0.49937981  0.53906290  0.86936504    -0.72350
O224        O  0.49791633  0.42657348  0.87010924    -0.73330
O225        O  0.55530964  0.48202351  0.87042483    -0.61950
O226        O  0.44224900  0.48348795  0.86845750    -0.70360
O227        O  0.43871535  0.48389444  0.80398095    -0.69920
O228        O  0.56074968  0.48084277  0.80606637    -0.61170
O229        O  0.49816221  0.42115619  0.80576106    -0.73680
O230        O  0.50113734  0.54356299  0.80503269    -0.72460
Cu231      Cu  0.49869055  0.48280024  0.87099765     1.04560
Cu232      Cu  0.49976197  0.48231224  0.80219215     1.04330
C233        C  0.50064677  0.56013576  0.83891033     0.93850
C234        C  0.49749531  0.40509906  0.83975936     0.92980
C235        C  0.57681782  0.48096784  0.84006005     0.85130
C236        C  0.42167149  0.48440152  0.83753370     0.91400
C237        C  0.50005492  0.67121730  0.20855365     0.03720
C238        C  0.49990749  0.63108626  0.21916419    -0.12430
C239        C  0.49894904  0.60209475  0.19003659     0.01220
C240        C  0.49837570  0.61409330  0.15087958    -0.10950
C241        C  0.49962178  0.65337632  0.13929266     0.03710
C242        C  0.50002446  0.68218966  0.16853634    -0.10380
H243        H  0.50054240  0.62276413  0.24971473     0.09310
H244        H  0.49713859  0.59183543  0.12840450     0.06840
H245        H  0.50031572  0.71281025  0.16047793     0.06680
C246        C  0.50085635  0.79234452  0.32855552     0.03720
C247        C  0.50057976  0.83242143  0.31779789    -0.12430
C248        C  0.50370917  0.86147605  0.34668119     0.01220
C249        C  0.50773283  0.84956866  0.38568337    -0.10950
C250        C  0.50491448  0.81047025  0.39761959     0.03710
C251        C  0.50211611  0.78153517  0.36859683    -0.10380
H252        H  0.49809960  0.84063586  0.28731335     0.09310
H253        H  0.51214681  0.87178790  0.40782797     0.06840
H254        H  0.50107157  0.75098144  0.37683662     0.06680
O255        O  0.44414031  0.63111821  0.01936966    -0.72350
O256        O  0.55667680  0.63032225  0.01755621    -0.73330
O257        O  0.50103611  0.63039705  0.07467026    -0.61950
O258        O  0.49980158  0.63097783  0.96199660    -0.70360
O259        O  0.50111671  0.69531909  0.95778069    -0.69920
O260        O  0.50053959  0.69471900  0.08013551    -0.61170
O261        O  0.56190152  0.69463392  0.01900088    -0.73680
O262        O  0.43963071  0.69548645  0.01950235    -0.72460
Cu263      Cu  0.50039667  0.62931350  0.01835528     1.04560
Cu264      Cu  0.50080892  0.69807513  0.01908322     1.04330
C265        C  0.42307692  0.66170833  0.02004883     0.93850
C266        C  0.57807114  0.66065988  0.01822388     0.92980
C267        C  0.50048693  0.66075340  0.09617339     0.85130
C268        C  0.50086628  0.66153272  0.94103944     0.91400
C269        C  0.18941544  0.79419249  0.01972253     0.03720
C270        C  0.19926709  0.83450963  0.02250727    -0.12430
C271        C  0.17038851  0.86311864  0.01751549     0.01220
C272        C  0.13169325  0.85080711  0.01191257    -0.10950
C273        C  0.12010823  0.81154335  0.01379996     0.03710
C274        C  0.14944346  0.78297105  0.01584254    -0.10380
H275        H  0.22924457  0.84343061  0.02780705     0.09310
H276        H  0.10950601  0.87280479  0.00697264     0.06840
H277        H  0.14130122  0.75239210  0.01436979     0.06680
C278        C  0.31063805  0.67321535  0.01768179     0.03720
C279        C  0.35085376  0.68373511  0.02081818    -0.12430
C280        C  0.37981624  0.65474527  0.02073253     0.01220
C281        C  0.36777027  0.61560767  0.02076206    -0.10950
C282        C  0.32865078  0.60394533  0.01699889     0.03710
C283        C  0.29997354  0.63310314  0.01439938    -0.10380
H284        H  0.35944815  0.71413164  0.02332132     0.09310
H285        H  0.38989711  0.59318659  0.02336598     0.06840
H286        H  0.26962229  0.62477298  0.01042993     0.06680
C287        C  0.99843473  0.79218755  0.20797781     0.03720
C288        C  0.99818146  0.83213458  0.21923871    -0.12430
C289        C  0.99989277  0.86123375  0.19057080     0.01220
C290        C  0.00248566  0.84942207  0.15128024    -0.10950
C291        C  0.00138226  0.81021858  0.13904184     0.03710
C292        C  0.99949246  0.78125062  0.16790498    -0.10380
H293        H  0.99678916  0.84020262  0.24990572     0.09310
H294        H  0.00504664  0.87177502  0.12919099     0.06840
H295        H  0.99903676  0.75064116  0.15957246     0.06680
C296        C  0.99874611  0.67285084  0.32766019     0.03720
C297        C  0.99924692  0.63287976  0.31644487    -0.12430
C298        C  0.00221844  0.60388410  0.34514250     0.01220
C299        C  0.00537947  0.61584024  0.38431012    -0.10950
C300        C  0.00233481  0.65491278  0.39653161     0.03710
C301        C  0.99948953  0.68380786  0.36771242    -0.10380
H302        H  0.99762368  0.62472583  0.28581946     0.09310
H303        H  0.00965789  0.59368073  0.40634307     0.06840
H304        H  0.99802003  0.71438408  0.37606218     0.06680
O305        O  0.00101897  0.76944830  0.07905077    -0.72350
O306        O  0.99783156  0.76958501  0.95692341    -0.73330
O307        O  0.06075041  0.77008823  0.01585550    -0.61950
O308        O  0.93837579  0.76928280  0.01958470    -0.70360
O309        O  0.94284864  0.83366035  0.02012248    -0.69920
O310        O  0.05554686  0.83442410  0.01640801    -0.61170
O311        O  0.99754368  0.83394646  0.96206714    -0.73680
O312        O  0.00082082  0.83381002  0.07473490    -0.72460
Cu313      Cu  0.99955126  0.76657783  0.01788290     1.04560
Cu314      Cu  0.99919974  0.83536190  0.01836992     1.04330
C315        C  0.00121463  0.80324826  0.09572290     0.93850
C316        C  0.99701867  0.80345214  0.94073992     0.92980
C317        C  0.07692904  0.80406896  0.01513601     0.85130
C318        C  0.92179394  0.80307246  0.02031016     0.91400
C319        C  0.18975440  0.67052027  0.51741357     0.03720
C320        C  0.20042462  0.63041398  0.51494898    -0.12430
C321        C  0.17130875  0.60158577  0.51327532     0.01220
C322        C  0.13206821  0.61378360  0.51273675    -0.10950
C323        C  0.12044098  0.65298499  0.51637913     0.03710
C324        C  0.14967741  0.68154090  0.51895300    -0.10380
H325        H  0.23100780  0.62194737  0.51427027     0.09310
H326        H  0.10955909  0.59176591  0.50982664     0.06840
H327        H  0.14155207  0.71206779  0.52178044     0.06680
C328        C  0.30972517  0.79132589  0.51847420     0.03720
C329        C  0.29872301  0.83137797  0.52013940    -0.12430
C330        C  0.32734493  0.86052760  0.51702887     0.01220
C331        C  0.36641666  0.84882144  0.51226412    -0.10950
C332        C  0.37867209  0.80974130  0.51383106     0.03710
C333        C  0.34988015  0.78067000  0.51606705    -0.10380
H334        H  0.26820555  0.83952451  0.52337926     0.09310
H335        H  0.38837583  0.87117221  0.50804196     0.06840
H336        H  0.35841492  0.75014236  0.51578917     0.06680
O337        O  0.94322900  0.63162396  0.51598453    -0.72350
O338        O  0.05578038  0.63036840  0.51835049    -0.73330
O339        O  0.99815461  0.63130585  0.57350444    -0.61950
O340        O  0.00071419  0.63124010  0.46076229    -0.70360
O341        O  0.00058188  0.69562240  0.45637650    -0.69920
O342        O  0.99996440  0.69564374  0.57846040    -0.61170
O343        O  0.06126718  0.69467288  0.51738502    -0.73680
O344        O  0.93877775  0.69597048  0.51721494    -0.72460
Cu345      Cu  0.99941646  0.62973818  0.51716411     1.04560
Cu346      Cu  0.00012071  0.69850897  0.51740271     1.04330
C347        C  0.92216669  0.66218890  0.51647011     0.93850
C348        C  0.07730288  0.66060684  0.51759286     0.92980
C349        C  0.99921774  0.66183407  0.59477199     0.85130
C350        C  0.00122677  0.66181595  0.43977723     0.91400
O351        O  0.50234291  0.76971877  0.45713206    -0.72350
O352        O  0.49688332  0.76975830  0.57927809    -0.73330
O353        O  0.43859087  0.76925434  0.51565205    -0.61950
O354        O  0.56073074  0.77013751  0.52056689    -0.70360
O355        O  0.55553075  0.83447129  0.52126286    -0.69920
O356        O  0.44289543  0.83365663  0.51555303    -0.61170
O357        O  0.49618816  0.83413156  0.57484856    -0.73680
O358        O  0.50218038  0.83410787  0.46203203    -0.72460
Cu359      Cu  0.49966758  0.76671059  0.51816443     1.04560
Cu360      Cu  0.49919189  0.83551008  0.51843985     1.04330
C361        C  0.50326553  0.80354153  0.44081120     0.93850
C362        C  0.49541570  0.80358329  0.59585668     0.92980
C363        C  0.42194807  0.80298541  0.51477078     0.85130
C364        C  0.57692015  0.80408802  0.52153480     0.91400
C365        C  0.49775041  0.17187577  0.32914412     0.03720
C366        C  0.49788344  0.18283023  0.36926023    -0.12430
C367        C  0.49470621  0.15409633  0.39820039     0.01220
C368        C  0.49077784  0.11503808  0.38615853    -0.10950
C369        C  0.49368164  0.10289844  0.34702541     0.03710
C370        C  0.49653977  0.13178046  0.31817365    -0.10380
H371        H  0.50032098  0.21334708  0.37759346     0.09310
H372        H  0.48624411  0.09301379  0.40830552     0.06840
H373        H  0.49769466  0.12340005  0.28758213     0.06680
C374        C  0.50053664  0.29169451  0.20893735     0.03720
C375        C  0.50156993  0.33181862  0.21985636    -0.12430
C376        C  0.50517860  0.36060298  0.19098821     0.01220
C377        C  0.50934348  0.34834158  0.15205072    -0.10950
C378        C  0.50479380  0.30941088  0.13993331     0.03710
C379        C  0.50079293  0.28071342  0.16881419    -0.10380
H380        H  0.49981676  0.34028801  0.25039543     0.09310
H381        H  0.51505910  0.37024244  0.13004517     0.06840
H382        H  0.49811786  0.25022643  0.16044772     0.06680
O383        O  0.55461870  0.98407854  0.37050499    -0.72350
O384        O  0.44185936  0.98043876  0.37065785    -0.73330
O385        O  0.50009486  0.92578965  0.37047127    -0.61950
O386        O  0.49635300  0.03866537  0.37057083    -0.70360
O387        O  0.49572459  0.04309220  0.30617320    -0.69920
O388        O  0.50082820  0.92104076  0.30604900    -0.61170
O389        O  0.43712674  0.97961529  0.30626523    -0.73680
O390        O  0.55931013  0.98449775  0.30609248    -0.72460
Cu391      Cu  0.49821958  0.98225142  0.37197075     1.04560
Cu392      Cu  0.49823277  0.98205662  0.30313578     1.04330
C393        C  0.57575122  0.98504635  0.33992149     0.93850
C394        C  0.42071232  0.97918909  0.34016569     0.92980
C395        C  0.50148934  0.90464854  0.33984724     0.85130
C396        C  0.49517539  0.05966317  0.34002277     0.91400
O397        O  0.44382113  0.33436849  0.02120739    -0.72350
O398        O  0.55668119  0.33364148  0.01820753    -0.73330
O399        O  0.49897871  0.33455968  0.96316754    -0.61950
O400        O  0.50165359  0.33337136  0.07597481    -0.70360
O401        O  0.50191959  0.26895818  0.07991018    -0.69920
O402        O  0.49838927  0.27020347  0.95784883    -0.61170
O403        O  0.56111367  0.26925065  0.01701988    -0.73680
O404        O  0.43872227  0.27004446  0.02070063    -0.72460
Cu405      Cu  0.50026712  0.33540066  0.01967661     1.04560
Cu406      Cu  0.49997143  0.26660652  0.01884668     1.04330
C407        C  0.42243837  0.30399183  0.02144842     0.93850
C408        C  0.57770594  0.30301760  0.01694304     0.92980
C409        C  0.49828770  0.30413472  0.94172818     0.85130
C410        C  0.50275268  0.30266243  0.09671850     0.91400
C411        C  0.18773388  0.29115614  0.51642866     0.03720
C412        C  0.19903473  0.33112366  0.51798896    -0.12430
C413        C  0.17039825  0.36040629  0.52001699     0.01220
C414        C  0.13106310  0.34889150  0.52233625    -0.10950
C415        C  0.11866470  0.31001155  0.51866440     0.03710
C416        C  0.14740192  0.28085173  0.51563545    -0.10380
H417        H  0.22973567  0.33915099  0.51771788     0.09310
H418        H  0.10904602  0.37127196  0.52632984     0.06840
H419        H  0.13872035  0.25046874  0.51306236     0.06680
C420        C  0.30856283  0.17080470  0.51767905     0.03720
C421        C  0.34863779  0.18189342  0.51947892    -0.12430
C422        C  0.37784023  0.15315443  0.52140197     0.01220
C423        C  0.36608728  0.11390534  0.52307985    -0.10950
C424        C  0.32698767  0.10177526  0.51996805     0.03710
C425        C  0.29800447  0.13061409  0.51704898    -0.10380
H426        H  0.35680245  0.21251529  0.51940479     0.09310
H427        H  0.38841690  0.09178312  0.52647221     0.06840
H428        H  0.26752806  0.12210496  0.51462311     0.06680
O429        O  0.05859809  0.26985431  0.51674859    -0.72350
O430        O  0.93645665  0.27064795  0.51566209    -0.73330
O431        O  0.99797686  0.27027988  0.45510991    -0.61950
O432        O  0.99735046  0.27084764  0.57723297    -0.70360
O433        O  0.99728328  0.33529969  0.57284256    -0.69920
O434        O  0.99826109  0.33462024  0.46025118    -0.61170
O435        O  0.94128247  0.33502717  0.51609059    -0.73680
O436        O  0.05439508  0.33427891  0.51687706    -0.72460
Cu437      Cu  0.99752848  0.26740614  0.51619288     1.04560
Cu438      Cu  0.99778881  0.33623667  0.51649975     1.04330
C439        C  0.07532294  0.30352834  0.51732931     0.93850
C440        C  0.92006954  0.30450965  0.51540045     0.92980
C441        C  0.99817984  0.30416558  0.43890339     0.85130
C442        C  0.99786664  0.30472737  0.59376641     0.91400
O443        O  0.28615099  0.98175377  0.58078756    -0.72350
O444        O  0.28607833  0.98029104  0.45864057    -0.73330
O445        O  0.28620639  0.91998221  0.51948538    -0.61950
O446        O  0.28613383  0.04210493  0.51946680    -0.70360
O447        O  0.35061031  0.03744181  0.51889865    -0.69920
O448        O  0.35066830  0.92481310  0.52003190    -0.61170
O449        O  0.35058905  0.98024146  0.46304160    -0.73680
O450        O  0.35061707  0.98186003  0.57595860    -0.72460
Cu451      Cu  0.28313086  0.98103191  0.51964616     1.04560
Cu452      Cu  0.35204211  0.98108939  0.51950857     1.04330
C453        C  0.32003573  0.98246886  0.59717579     0.93850
C454        C  0.31991922  0.97958962  0.44206659     0.92980
C455        C  0.32014333  0.90363854  0.51910025     0.85130
C456        C  0.32001323  0.05856098  0.51933668     0.91400
C457        C  0.18830677  0.17303552  0.01867521     0.03720
C458        C  0.19936305  0.13312198  0.02263482    -0.12430
C459        C  0.17057770  0.10417792  0.02629833     0.01220
C460        C  0.13147120  0.11609598  0.02950279    -0.10950
C461        C  0.11914116  0.15447364  0.02265318     0.03710
C462        C  0.14789328  0.18316042  0.01682690    -0.10380
H463        H  0.22995942  0.12475079  0.02293864     0.09310
H464        H  0.10951984  0.09427897  0.03611358     0.06840
H465        H  0.13910426  0.21311444  0.01147210     0.06680
C466        C  0.30985703  0.29357601  0.01652699     0.03720
C467        C  0.29958287  0.33379044  0.01371227    -0.12430
C468        C  0.32843991  0.36269823  0.01710238     0.01220
C469        C  0.36738408  0.35065864  0.02186732    -0.10950
C470        C  0.37914810  0.31136473  0.02154444     0.03710
C471        C  0.34991512  0.28260746  0.02013529    -0.10380
H472        H  0.26933184  0.34236115  0.00948925     0.09310
H473        H  0.38960420  0.37289105  0.02533811     0.06840
H474        H  0.35812797  0.25206270  0.02190964     0.06680
C475        C  0.18756635  0.98382722  0.21110288     0.03720
C476        C  0.19879457  0.98301605  0.17112717    -0.12430
C477        C  0.17010184  0.97980927  0.14207335     0.01220
C478        C  0.13093314  0.97638873  0.15391501    -0.10950
C479        C  0.11861278  0.98019129  0.19288840     0.03710
C480        C  0.14739688  0.98345201  0.22187369    -0.10380
H481        H  0.22945213  0.98453293  0.16300003     0.09310
H482        H  0.10897447  0.97146697  0.13169868     0.06840
H483        H  0.13894059  0.98539473  0.25239569     0.06680
C484        C  0.30840610  0.98245143  0.33005580     0.03720
C485        C  0.34840131  0.98135971  0.31875930    -0.12430
C486        C  0.37751352  0.97769947  0.34735866     0.01220
C487        C  0.36566991  0.97411193  0.38650409    -0.10950
C488        C  0.32669770  0.97815914  0.39885005     0.03710
C489        C  0.29771526  0.98188790  0.37017113    -0.10380
H490        H  0.35649800  0.98310054  0.28814429     0.09310
H491        H  0.38785215  0.96900533  0.40843087     0.06840
H492        H  0.26720017  0.98412336  0.37868672     0.06680
C493        C  0.99821219  0.17171510  0.20874470     0.03720
C494        C  0.99780248  0.13184858  0.22003212    -0.12430
C495        C  0.99594901  0.10253400  0.19129899     0.01220
C496        C  0.99386250  0.11414417  0.15199866    -0.10950
C497        C  0.99611885  0.15321353  0.13988432     0.03710
C498        C  0.99796436  0.18233168  0.16873237    -0.10380
H499        H  0.99881755  0.12402361  0.25070335     0.09310
H500        H  0.99083121  0.09177997  0.12979007     0.06840
H501        H  0.99910955  0.21286466  0.16041719     0.06680
C502        C  0.99877797  0.29347012  0.32669449     0.03720
C503        C  0.99894986  0.33343019  0.31575935    -0.12430
C504        C  0.99871375  0.36253451  0.34476549     0.01220
C505        C  0.99814899  0.35066639  0.38400284    -0.10950
C506        C  0.99829355  0.31139193  0.39575730     0.03710
C507        C  0.99855116  0.28249252  0.36662163    -0.10380
H508        H  0.99927492  0.34149434  0.28513237     0.09310
H509        H  0.99759499  0.37301463  0.40640966     0.06840
H510        H  0.99852549  0.25186159  0.37464880     0.06680
O511        O  0.99788072  0.92070312  0.23198960    -0.72350
O512        O  0.99676342  0.04303660  0.23239974    -0.73330
O513        O  0.93622157  0.98141680  0.23147917    -0.61950
O514        O  0.05843317  0.98183234  0.23316697    -0.70360
O515        O  0.05455663  0.98218894  0.16872922    -0.69920
O516        O  0.94182205  0.98151168  0.16714661    -0.61170
O517        O  0.99781742  0.03810152  0.16803637    -0.73680
O518        O  0.99859444  0.92563680  0.16765301    -0.72460
Cu519      Cu  0.99727214  0.98180403  0.23529574     1.04560
Cu520      Cu  0.99822075  0.98189042  0.16650016     1.04330
C521        C  0.99871232  0.90439124  0.19801263     0.93850
C522        C  0.99686197  0.05936351  0.19853952     0.92980
C523        C  0.92024560  0.98133276  0.19743243     0.85130
C524        C  0.07531148  0.98148465  0.19950497     0.91400
O525        O  0.21134633  0.04453908  0.02386713    -0.72350
O526        O  0.21093614  0.92272187  0.01960066    -0.73330
O527        O  0.21097177  0.98527172  0.96027763    -0.61950
O528        O  0.21115934  0.98168562  0.08251900    -0.70360
O529        O  0.14668939  0.98240161  0.07785392    -0.69920
O530        O  0.14652037  0.98508557  0.96507546    -0.61170
O531        O  0.14640615  0.92728792  0.02017841    -0.73680
O532        O  0.14684537  0.04004737  0.02332577    -0.72460
Cu533      Cu  0.21410711  0.98358152  0.02151871     1.04560
Cu534      Cu  0.14518329  0.98374039  0.02158941     1.04330
C535        C  0.17750418  0.06103379  0.02469836     0.93850
C536        C  0.17707917  0.90626413  0.01926868     0.92980
C537        C  0.17708535  0.98549753  0.94382961     0.85130
C538        C  0.17724362  0.98126736  0.09893904     0.91400
O539        O  0.99830990  0.12825040  0.96257812    -0.72350
O540        O  0.99870788  0.12948744  0.07551704    -0.73330
O541        O  0.94193769  0.12881674  0.01932887    -0.61950
O542        O  0.05520608  0.12974417  0.01868854    -0.70360
O543        O  0.05887177  0.19422402  0.02066718    -0.69920
O544        O  0.93693738  0.19318633  0.01838638    -0.61170
O545        O  0.99659967  0.19385370  0.08037377    -0.73680
O546        O  0.99903071  0.19281057  0.95868281    -0.72460
Cu547      Cu  0.99854506  0.12759423  0.01903396     1.04560
Cu548      Cu  0.99783634  0.19648462  0.01946108     1.04330
C549        C  0.99925145  0.15902311  0.94196477     0.93850
C550        C  0.99719477  0.16005873  0.09671068     0.92980
C551        C  0.92064747  0.15931460  0.01858997     0.85130
C552        C  0.07584109  0.16066023  0.02038890     0.91400
C553        C  0.18989865  0.48250146  0.32580414     0.03720
C554        C  0.14968220  0.48395534  0.31528226    -0.12430
C555        C  0.12073905  0.47942063  0.34396304     0.01220
C556        C  0.13274346  0.47367961  0.38269219    -0.10950
C557        C  0.17186201  0.47637105  0.39475603     0.03710
C558        C  0.20080901  0.47960903  0.36582134    -0.10380
H559        H  0.14123077  0.48808299  0.28503231     0.09310
H560        H  0.11055319  0.46808581  0.40457644     0.06840
H561        H  0.23140830  0.47974037  0.37416633     0.06680
C562        C  0.31071012  0.48325147  0.20509069     0.03720
C563        C  0.35068645  0.48075115  0.21624922    -0.12430
C564        C  0.38007141  0.47981577  0.18763162     0.01220
C565        C  0.36862507  0.47978147  0.14817428    -0.10950
C566        C  0.32952960  0.48262846  0.13600803     0.03710
C567        C  0.30040910  0.48488915  0.16486594    -0.10380
H568        H  0.35867511  0.47957774  0.24688926     0.09310
H569        H  0.39109599  0.47777645  0.12595286     0.06840
H570        H  0.26998631  0.48758463  0.15629723     0.06680
O571        O  0.94383243  0.48337206  0.36910142    -0.72350
O572        O  0.05665466  0.48342108  0.36798424    -0.73330
O573        O  0.00018828  0.53966162  0.36850358    -0.61950
O574        O  0.00029981  0.42701620  0.36826925    -0.70360
O575        O  0.99861271  0.42204732  0.30391508    -0.69920
O576        O  0.00112218  0.54417022  0.30412061    -0.61170
O577        O  0.06089644  0.48162228  0.30353890    -0.73680
O578        O  0.93869049  0.48437901  0.30475364    -0.72460
Cu579      Cu  0.00024601  0.48339199  0.36987581     1.04560
Cu580      Cu  0.99978688  0.48309019  0.30105984     1.04330
C581        C  0.92247776  0.48423107  0.33876068     0.93850
C582        C  0.07755223  0.48171320  0.33726077     0.92980
C583        C  0.00114879  0.56069610  0.33799340     0.85130
C584        C  0.99924673  0.40573760  0.33774238     0.91400
O585        O  0.35188095  0.53957432  0.01419782    -0.72350
O586        O  0.35209114  0.42695918  0.01488086    -0.73330
O587        O  0.35100825  0.48284791  0.95837485    -0.61950
O588        O  0.35286753  0.48389569  0.07131977    -0.70360
O589        O  0.28841518  0.48316248  0.07665959    -0.69920
O590        O  0.28650206  0.48439031  0.95456542    -0.61170
O591        O  0.28760594  0.42242149  0.01519942    -0.73680
O592        O  0.28746399  0.54455734  0.01632382    -0.72460
Cu593      Cu  0.35338576  0.48329437  0.01462622     1.04560
Cu594      Cu  0.28448681  0.48357046  0.01567746     1.04330
C595        C  0.32140174  0.56082868  0.01556320     0.93850
C596        C  0.32148014  0.40590101  0.01545818     0.92980
C597        C  0.32019128  0.48442692  0.93768960     0.85130
C598        C  0.32243564  0.48338920  0.09278019     0.91400
O599        O  0.14729127  0.48317568  0.57172361    -0.72350
O600        O  0.14793178  0.47865161  0.45898387    -0.73330
O601        O  0.14742085  0.42480840  0.51742713    -0.61950
O602        O  0.14766419  0.53727495  0.51330979    -0.70360
O603        O  0.21213124  0.54178335  0.51399266    -0.69920
O604        O  0.21184714  0.41963671  0.51771362    -0.61170
O605        O  0.21243475  0.47843327  0.45459125    -0.73680
O606        O  0.21174204  0.48262009  0.57666314    -0.72460
Cu607      Cu  0.14616719  0.48099669  0.51532487     1.04560
Cu608      Cu  0.21506244  0.48064184  0.51570049     1.04330
C609        C  0.17777621  0.48346131  0.59296518     0.93850
C610        C  0.17865495  0.47761764  0.43799892     0.92980
C611        C  0.17783865  0.40348382  0.51848372     0.85130
C612        C  0.17827974  0.55833139  0.51327190     0.91400
O613        O  0.49817993  0.13060197  0.46236458    -0.72350
O614        O  0.49964400  0.13049245  0.57515177    -0.73330
O615        O  0.44247383  0.13012739  0.51959430    -0.61950
O616        O  0.55532603  0.13112234  0.51797714    -0.70360
O617        O  0.55965037  0.19549238  0.51744229    -0.69920
O618        O  0.43728102  0.19445805  0.52078645    -0.61170
O619        O  0.50018653  0.19487925  0.58011135    -0.73680
O620        O  0.49666209  0.19497158  0.45799813    -0.72460
Cu621      Cu  0.49892716  0.12917590  0.51875538     1.04560
Cu622      Cu  0.49842344  0.19796513  0.51908883     1.04330
C623        C  0.49660621  0.16113490  0.44140107     0.93850
C624        C  0.50066524  0.16103010  0.59639065     0.92980
C625        C  0.42107186  0.16049762  0.52069091     0.85130
C626        C  0.57633378  0.16175576  0.51734550     0.91400
O627        O  0.49916271  0.54259532  0.23077847    -0.72350
O628        O  0.50204378  0.42062783  0.23133656    -0.73330
O629        O  0.56162071  0.48294675  0.23156887    -0.61950
O630        O  0.43908879  0.48033303  0.22963604    -0.70360
O631        O  0.44487957  0.47967605  0.16533068    -0.69920
O632        O  0.55728677  0.48231945  0.16719470    -0.61170
O633        O  0.50253389  0.42462102  0.16690250    -0.73680
O634        O  0.49983357  0.53753458  0.16639739    -0.72460
Cu635      Cu  0.50036116  0.48163083  0.23385829     1.04560
Cu636      Cu  0.50113234  0.48101666  0.16505798     1.04330
C637        C  0.49925104  0.55886149  0.19693708     0.93850
C638        C  0.50326132  0.40384503  0.19763187     0.92980
C639        C  0.57827349  0.48307517  0.19777065     0.85130
C640        C  0.42319976  0.47972138  0.19549230     0.91400
C641        C  0.69061108  0.48186535  0.20842483     0.03720
C642        C  0.65054811  0.48241417  0.21948952    -0.12430
C643        C  0.62153594  0.48377314  0.19065154     0.01220
C644        C  0.63354446  0.48508568  0.15139567    -0.10950
C645        C  0.67280635  0.48297939  0.13939545     0.03710
C646        C  0.70167070  0.48162418  0.16839055    -0.10380
H647        H  0.64233041  0.48197707  0.25012596     0.09310
H648        H  0.61128422  0.48747067  0.12913065     0.06840
H649        H  0.73233006  0.48050110  0.16018878     0.06680
C650        C  0.81023593  0.48301147  0.32824091     0.03720
C651        C  0.85029930  0.48330206  0.31727232    -0.12430
C652        C  0.87929045  0.48498101  0.34613191     0.01220
C653        C  0.86730500  0.48676643  0.38539033    -0.10950
C654        C  0.82796088  0.48507291  0.39725035     0.03710
C655        C  0.79913746  0.48346259  0.36821995    -0.10380
H656        H  0.85854686  0.48224258  0.28665184     0.09310
H657        H  0.88957958  0.48916543  0.40768523     0.06840
H658        H  0.76845688  0.48269281  0.37637860     0.06680
O659        O  0.71282904  0.48124419  0.95731004    -0.72350
O660        O  0.71377703  0.48179465  0.07956419    -0.73330
O661        O  0.71340402  0.42034501  0.01799672    -0.61950
O662        O  0.71341123  0.54247619  0.01844746    -0.70360
O663        O  0.64897397  0.53763368  0.01936593    -0.69920
O664        O  0.64894397  0.42510686  0.01857634    -0.61170
O665        O  0.64932835  0.48125864  0.07516356    -0.73680
O666        O  0.64840419  0.48153892  0.96271354    -0.72460
Cu667      Cu  0.71640115  0.48144178  0.01835002     1.04560
Cu668      Cu  0.64752329  0.48137505  0.01900161     1.04330
C669        C  0.67877694  0.48121577  0.94125334     0.93850
C670        C  0.67992370  0.48192727  0.09616923     0.92980
C671        C  0.67949853  0.40394988  0.01771728     0.85130
C672        C  0.67948812  0.55883257  0.01888989     0.91400
C673        C  0.80844485  0.17085105  0.01914161     0.03720
C674        C  0.84854659  0.18152910  0.01912879    -0.12430
C675        C  0.87739905  0.15241070  0.01794456     0.01220
C676        C  0.86521275  0.11331797  0.01644177    -0.10950
C677        C  0.82578638  0.10171978  0.01751147     0.03710
C678        C  0.79706497  0.13098135  0.01866598    -0.10380
H679        H  0.85692358  0.21209159  0.01992409     0.09310
H680        H  0.88747284  0.09093509  0.01461063     0.06840
H681        H  0.76632339  0.12310899  0.01912040     0.06680
C682        C  0.68994057  0.29176926  0.01902765     0.03720
C683        C  0.64988448  0.28090662  0.01823489    -0.12430
C684        C  0.62097887  0.30986749  0.01573826     0.01220
C685        C  0.63313440  0.34895451  0.01320297    -0.10950
C686        C  0.67235396  0.36078825  0.01637283     0.03710
C687        C  0.70113509  0.33169001  0.01889340    -0.10380
H688        H  0.64159385  0.25034261  0.01944082     0.09310
H689        H  0.61101126  0.37120082  0.00930947     0.06840
H690        H  0.73179437  0.33972425  0.02051162     0.06680
C691        C  0.80785988  0.98138110  0.20782159     0.03720
C692        C  0.84792405  0.98082571  0.21878369    -0.12430
C693        C  0.87709622  0.98117001  0.18996271     0.01220
C694        C  0.86537606  0.98145681  0.15066982    -0.10950
C695        C  0.82608106  0.98171569  0.13875338     0.03710
C696        C  0.79705603  0.98194590  0.16775491    -0.10380
H697        H  0.85606626  0.98026535  0.24940886     0.09310
H698        H  0.88784118  0.98149421  0.12838342     0.06840
H699        H  0.76643271  0.98256828  0.15948549     0.06680
C700        C  0.68798640  0.98257594  0.32849306     0.03720
C701        C  0.64786689  0.98386438  0.31779299    -0.12430
C702        C  0.61898300  0.98626180  0.34683773     0.01220
C703        C  0.63111661  0.98860831  0.38595651    -0.10950
C704        C  0.67033612  0.98526557  0.39766068     0.03710
C705        C  0.69904446  0.98234842  0.36849702    -0.10380
H706        H  0.63946004  0.98311937  0.28724006     0.09310
H707        H  0.60899738  0.99243461  0.40830380     0.06840
H708        H  0.72964893  0.98018255  0.37657500     0.06680
O709        O  0.78520584  0.91996452  0.01872365    -0.72350
O710        O  0.78444118  0.04226497  0.01797292    -0.73330
O711        O  0.78438657  0.98077596  0.95711886    -0.61950
O712        O  0.78494088  0.98160953  0.07934809    -0.70360
O713        O  0.84938533  0.98160505  0.07429335    -0.69920
O714        O  0.84879774  0.98104870  0.96182417    -0.61170
O715        O  0.84885756  0.03736691  0.01796483    -0.73680
O716        O  0.84961369  0.92517169  0.01810615    -0.72460
Cu717      Cu  0.78168014  0.98111485  0.01829112     1.04560
Cu718      Cu  0.85053437  0.98130088  0.01801752     1.04330
C719        C  0.81926071  0.90380843  0.01883153     0.93850
C720        C  0.81838243  0.05859381  0.01779750     0.92980
C721        C  0.81828943  0.98101025  0.94065787     0.85130
C722        C  0.81889432  0.98169091  0.09559575     0.91400
C723        C  0.68872104  0.17309552  0.51910068     0.03720
C724        C  0.64861790  0.18392719  0.51838618    -0.12430
C725        C  0.61967878  0.15490165  0.51681478     0.01220
C726        C  0.63184739  0.11573186  0.51544798    -0.10950
C727        C  0.67115246  0.10395854  0.51762111     0.03710
C728        C  0.69994356  0.13314342  0.51921041    -0.10380
H729        H  0.64031576  0.21451834  0.51895414     0.09310
H730        H  0.60966748  0.09335969  0.51292585     0.06840
H731        H  0.73063859  0.12514640  0.52030098     0.06680
C732        C  0.80777843  0.29369796  0.51825120     0.03720
C733        C  0.84781452  0.28269264  0.51750063    -0.12430
C734        C  0.87681831  0.31151334  0.51445353     0.01220
C735        C  0.86480326  0.35058438  0.51136790    -0.10950
C736        C  0.82565956  0.36265148  0.51477000     0.03710
C737        C  0.79674880  0.33369528  0.51772982    -0.10380
H738        H  0.85601558  0.25211563  0.51902562     0.09310
H739        H  0.88700325  0.37265110  0.50692257     0.06840
H740        H  0.76612987  0.34189407  0.51946296     0.06680
O741        O  0.64760733  0.92693289  0.51791127    -0.72350
O742        O  0.64784010  0.03954597  0.51892337    -0.73330
O743        O  0.64724587  0.98356367  0.46212829    -0.61950
O744        O  0.64795993  0.98287186  0.57468517    -0.70360
O745        O  0.71242649  0.98255659  0.57915692    -0.69920
O746        O  0.71168992  0.98364407  0.45693134    -0.61170
O747        O  0.71227187  0.04432890  0.51834382    -0.73680
O748        O  0.71207219  0.92214167  0.51783733    -0.72460
Cu749      Cu  0.64626768  0.98324941  0.51841683     1.04560
Cu750      Cu  0.71515140  0.98318254  0.51802584     1.04330
C751        C  0.67816544  0.90576524  0.51829667     0.93850
C752        C  0.67836518  0.06074274  0.51838508     0.92980
C753        C  0.67768397  0.98408852  0.44077019     0.85130
C754        C  0.67855741  0.98198618  0.59570052     0.91400
O755        O  0.84953820  0.48230145  0.57409910    -0.72350
O756        O  0.85082536  0.48380700  0.46172824    -0.73330
O757        O  0.85055810  0.53945523  0.51898327    -0.61950
O758        O  0.84956572  0.42678389  0.51700100    -0.70360
O759        O  0.78507684  0.42261039  0.51667244    -0.69920
O760        O  0.78615491  0.54479244  0.51809754    -0.61170
O761        O  0.78640121  0.48425598  0.45649246    -0.73680
O762        O  0.78511204  0.48355769  0.57876653    -0.72460
Cu763      Cu  0.85151180  0.48304483  0.51800430     1.04560
Cu764      Cu  0.78264371  0.48377863  0.51753221     1.04330
C765        C  0.81896492  0.48318476  0.59523627     0.93850
C766        C  0.82048000  0.48439086  0.44035750     0.92980
C767        C  0.82018464  0.56090586  0.51854004     0.85130
C768        C  0.81883717  0.40589536  0.51617244     0.91400
C769        C  0.71925271  0.20393611  0.51906237    -0.04750
C770        C  0.73174470  0.22037866  0.48332834    -0.01860
C771        C  0.76063509  0.24985017  0.48315061     0.03130
C772        C  0.77714851  0.26297060  0.51870502    -0.04740
C773        C  0.76474738  0.24647395  0.55443187    -0.01850
C774        C  0.73581586  0.21698797  0.55461273     0.03120
C775        C  0.71502956  0.20669114  0.44673403     0.37770
C776        C  0.78171521  0.25999845  0.59094415     0.37760
C777        C  0.72289665  0.20014559  0.59132771     0.36190
C778        C  0.77364738  0.26654490  0.44637170     0.36190
N779        N  0.71252000  0.18664938  0.62057714    -0.38630
N780        N  0.78410534  0.27990201  0.41708441    -0.38870
N781        N  0.79530916  0.27085982  0.62003219    -0.38080
N782        N  0.70168191  0.19569566  0.41757981    -0.38080
C783        C  0.77702596  0.98165743  0.23860498    -0.04750
C784        C  0.75021649  0.95027083  0.24149132    -0.01860
C785        C  0.72114774  0.95048079  0.27087741     0.03130
C786        C  0.71870203  0.98206127  0.29760134    -0.04740
C787        C  0.74544857  0.01349179  0.29463475    -0.01850
C788        C  0.77447884  0.01329579  0.26525778     0.03120
C789        C  0.75308376  0.91725514  0.21477565     0.37770
C790        C  0.74252271  0.04660555  0.32124179     0.37760
C791        C  0.80116157  0.04619676  0.26190439     0.36190
C792        C  0.69429131  0.91772718  0.27413193     0.36190
N793        N  0.82250450  0.07237259  0.25927745    -0.38630
N794        N  0.67279315  0.89167001  0.27667694    -0.38630
N795        N  0.74022421  0.07294686  0.34252634    -0.38080
N796        N  0.75533265  0.89099201  0.19338910    -0.38080
C797        C  0.77809295  0.20179402  0.01924560    -0.04750
C798        C  0.76504220  0.21815550  0.05494745    -0.01860
C799        C  0.73621356  0.24772232  0.05494131     0.03130
C800        C  0.72044362  0.26097298  0.01923208    -0.04740
C801        C  0.73362348  0.24471182  0.98352117    -0.01850
C802        C  0.76240252  0.21513998  0.98352975     0.03120
C803        C  0.78124945  0.20440908  0.09162175     0.37770
C804        C  0.71764743  0.25861822  0.94678545     0.37760
C805        C  0.77607086  0.19851987  0.94681498     0.36190
C806        C  0.72260784  0.26445357  0.09160568     0.36190
N807        N  0.78703162  0.18522910  0.91756586    -0.38630
N808        N  0.71169482  0.27785290  0.12082142    -0.38630
N809        N  0.70487295  0.26979904  0.91753413    -0.38080
N810        N  0.79425317  0.19336576  0.12082335    -0.38080
C811        C  0.72129187  0.48199901  0.23905516    -0.04750
C812        C  0.74480861  0.51554271  0.24465109    -0.01860
C813        C  0.77390629  0.51583274  0.27383204     0.03130
C814        C  0.77962307  0.48257581  0.29754151    -0.04740
C815        C  0.75603476  0.44907287  0.29203019    -0.01850
C816        C  0.72691269  0.44879111  0.26284017     0.03120
C817        C  0.73843929  0.55010200  0.22094171     0.37770
C818        C  0.76225716  0.41463127  0.31592626     0.37760
C819        C  0.70318578  0.41407926  0.25676054     0.36190
C820        C  0.79740035  0.55069399  0.28008648     0.36190
N821        N  0.68420486  0.38643697  0.25186589    -0.38630
N822        N  0.81616465  0.57845950  0.28513133    -0.38630
N823        N  0.76726075  0.38720532  0.33503927    -0.38080
N824        N  0.73331004  0.57763386  0.20201365    -0.38080
C825        C  0.22059440  0.48327082  0.29462734    -0.04750
C826        C  0.25024469  0.51218914  0.29493070    -0.01860
C827        C  0.27947212  0.51237360  0.26563853     0.03130
C828        C  0.27943439  0.48360332  0.23570633    -0.04740
C829        C  0.24968703  0.45476765  0.23534409    -0.01850
C830        C  0.22047709  0.45460498  0.26458720     0.03120
C831        C  0.25034305  0.54238175  0.32493852     0.37770
C832        C  0.24960940  0.42439082  0.20548450     0.37760
C833        C  0.19089129  0.42406035  0.26422869     0.36190
C834        C  0.30914817  0.54280195  0.26597541     0.36190
N835        N  0.16718797  0.39984502  0.26376975    -0.38630
N836        N  0.33294603  0.56692438  0.26640914    -0.38630
N837        N  0.24935781  0.40030199  0.18156887    -0.38080
N838        N  0.25059728  0.56632069  0.34900124    -0.38080
C839        C  0.99846887  0.20279350  0.23903567    -0.04750
C840        C  0.03432652  0.21776987  0.25307413    -0.01860
C841        C  0.03444024  0.24768344  0.28161168     0.03130
C842        C  0.99869438  0.26267030  0.29611516    -0.04740
C843        C  0.96283457  0.24780916  0.28194260    -0.01850
C844        C  0.96272053  0.21790858  0.25341449     0.03120
C845        C  0.07103181  0.20236394  0.23807104     0.37770
C846        C  0.92610237  0.26333488  0.29678555     0.37760
C847        C  0.92585998  0.20266722  0.23874581     0.36190
C848        C  0.07127431  0.26307805  0.29614929     0.36190
N849        N  0.89650708  0.19045964  0.22697499    -0.38630
N850        N  0.10061022  0.27543587  0.30780154    -0.38630
N851        N  0.89684021  0.27578002  0.30866377    -0.38080
N852        N  0.10027236  0.19002135  0.22603567    -0.38080
C853        C  0.21816765  0.98397538  0.24191273    -0.04750
C854        C  0.22345610  0.95061114  0.26559227    -0.01860
C855        C  0.25295244  0.95022084  0.29438112     0.03130
C856        C  0.27735172  0.98319689  0.29970093    -0.04740
C857        C  0.27216326  0.01651920  0.27595319    -0.01850
C858        C  0.24261811  0.01691231  0.24712980     0.03120
C859        C  0.19920934  0.91621542  0.25959824     0.37770
C860        C  0.29683126  0.05062593  0.28161841     0.37760
C861        C  0.23692326  0.05143139  0.22323025     0.36190
C862        C  0.25891109  0.91542358  0.31786621     0.36190
N863        N  0.23232191  0.07890854  0.20409095    -0.38630
N864        N  0.26372977  0.88770590  0.33660603    -0.38630
N865        N  0.31657060  0.07779600  0.28614029    -0.38080
N866        N  0.17986398  0.88881165  0.25477258    -0.38080
C867        C  0.27842087  0.26297525  0.01638816    -0.04750
C868        C  0.24684826  0.26536912  0.04328551    -0.01860
C869        C  0.21741387  0.23637512  0.04365422     0.03130
C870        C  0.21903613  0.20434737  0.01721204    -0.04740
C871        C  0.25055730  0.20200530  0.99023290    -0.01850
C872        C  0.27994790  0.23112160  0.98977421     0.03120
C873        C  0.24498599  0.29712292  0.07163906     0.37770
C874        C  0.25267035  0.16995365  0.96228677     0.37760
C875        C  0.31137274  0.22850306  0.96116807     0.36190
C876        C  0.18605798  0.23915227  0.07235209     0.36190
N877        N  0.33658231  0.22617435  0.93856171    -0.38630
N878        N  0.16093080  0.24166145  0.09503197    -0.38630
N879        N  0.25471258  0.14419386  0.94027213    -0.38080
N880        N  0.24321831  0.32257291  0.09403783    -0.38080
C881        C  0.21831629  0.25993379  0.51619579    -0.04750
C882        C  0.21923059  0.23173411  0.54638917    -0.01860
C883        C  0.24858735  0.20267461  0.54677319     0.03130
C884        C  0.27738714  0.20141044  0.51694654    -0.04740
C885        C  0.27644269  0.22954552  0.48670960    -0.01850
C886        C  0.24707470  0.25864090  0.48633743     0.03120
C887        C  0.19061766  0.23320219  0.57787342     0.37770
C888        C  0.30524240  0.22816805  0.45541376     0.37760
C889        C  0.24607659  0.28680708  0.45467544     0.36190
C890        C  0.24973145  0.17472783  0.57865703     0.36190
N891        N  0.24539644  0.30939874  0.42954182    -0.38630
N892        N  0.25054775  0.15235366  0.60398386    -0.38630
N893        N  0.32832205  0.22719839  0.43055933    -0.38080
N894        N  0.16772659  0.23424054  0.60289953    -0.38080
C895        C  0.49964145  0.26093541  0.23966712    -0.04750
C896        C  0.53132780  0.23451043  0.24330808    -0.01860
C897        C  0.53079001  0.20547757  0.27254029     0.03130
C898        C  0.49860449  0.20265122  0.29843977    -0.04740
C899        C  0.46696250  0.22912650  0.29486243    -0.01850
C900        C  0.46748110  0.25813863  0.26560391     0.03120
C901        C  0.56504854  0.23781143  0.21757344     0.37770
C902        C  0.43335192  0.22594881  0.32075236     0.37760
C903        C  0.43445008  0.28456991  0.26164062     0.36190
C904        C  0.56385272  0.17908449  0.27655276     0.36190
N905        N  0.40815364  0.30571577  0.25850820    -0.38630
N906        N  0.59018138  0.15798446  0.27973032    -0.38630
N907        N  0.40661341  0.22341034  0.34147779    -0.38080
N908        N  0.59189219  0.24045610  0.19699782    -0.38080
C909        C  0.22062219  0.70133618  0.51782266    -0.04750
C910        C  0.24929959  0.70209008  0.54765060    -0.01860
C911        C  0.27831757  0.73149154  0.54799725     0.03130
C912        C  0.27894645  0.76041823  0.51851840    -0.04740
C913        C  0.25034058  0.75955753  0.48861126    -0.01850
C914        C  0.22135859  0.73019101  0.48826257     0.03120
C915        C  0.24850004  0.67313020  0.57860033     0.37770
C916        C  0.25123922  0.78831704  0.45744472     0.37760
C917        C  0.19284875  0.72918627  0.45676299     0.36190
C918        C  0.30702186  0.73240550  0.57928403     0.36190
N919        N  0.17002031  0.72850071  0.43175462    -0.38630
N920        N  0.33003328  0.73302186  0.60412314    -0.38630
N921        N  0.25182935  0.81132451  0.43268427    -0.38080
N922        N  0.24798365  0.64992591  0.60317610    -0.38080
C923        C  0.99840794  0.70352905  0.29713962    -0.04750
C924        C  0.96291106  0.71461844  0.27919519    -0.01860
C925        C  0.96286497  0.74363883  0.24994599     0.03130
C926        C  0.99832311  0.76156571  0.23855509    -0.04740
C927        C  0.03380158  0.75052873  0.25657932    -0.01850
C928        C  0.03384539  0.72156347  0.28582103     0.03120
C929        C  0.92645811  0.69638808  0.29115696     0.37770
C930        C  0.07028589  0.76885970  0.24478910     0.37760
C931        C  0.07039506  0.71000365  0.30408744     0.36190
C932        C  0.92634968  0.75540428  0.23179936     0.36190
N933        N  0.09949804  0.70071400  0.31870581    -0.38630
N934        N  0.89725623  0.76489851  0.21729766    -0.38630
N935        N  0.09934347  0.78352531  0.23532413    -0.38080
N936        N  0.89741276  0.68181110  0.30079117    -0.38080
C937        C  0.22104984  0.76373617  0.02009515    -0.04750
C938        C  0.21854326  0.73114543  0.04546862    -0.01860
C939        C  0.24756798  0.70170975  0.04459401     0.03130
C940        C  0.27962310  0.70426439  0.01826281    -0.04740
C941        C  0.28223306  0.73693031  0.99301500    -0.01850
C942        C  0.25350471  0.76662079  0.99424204     0.03120
C943        C  0.18664041  0.72813073  0.07349609     0.37770
C944        C  0.31386791  0.73971014  0.96464004     0.37760
C945        C  0.25746284  0.79988383  0.96818625     0.36190
C946        C  0.24450610  0.66910912  0.07157613     0.36190
N947        N  0.26116725  0.82666963  0.94788426    -0.38630
N948        N  0.24171055  0.64291800  0.09277269    -0.38630
N949        N  0.33918081  0.74224668  0.94219203    -0.38080
N950        N  0.16106895  0.72536004  0.09561898    -0.38080
C951        C  0.50035855  0.76147031  0.29767012    -0.04750
C952        C  0.53218891  0.75790224  0.27134230    -0.01860
C953        C  0.53220190  0.72830553  0.24244112     0.03130
C954        C  0.50031713  0.70206420  0.23949303    -0.04740
C955        C  0.46847500  0.70563493  0.26582116    -0.01850
C956        C  0.46851635  0.73519258  0.29479964     0.03120
C957        C  0.56547846  0.78414685  0.27456494     0.37770
C958        C  0.43514978  0.67946055  0.26252422     0.37760
C959        C  0.43530525  0.73912352  0.32111142     0.36190
C960        C  0.56557570  0.72427807  0.21632555     0.36190
N961        N  0.40885648  0.74223654  0.34215192    -0.38630
N962        N  0.59215006  0.72109219  0.19545197    -0.38630
N963        N  0.40863229  0.65851031  0.25991406    -0.38080
N964        N  0.59196055  0.80514967  0.27710888    -0.38080
C965        C  0.27882689  0.48041924  0.79427495    -0.04750
C966        C  0.25105811  0.44977593  0.79236052    -0.01860
C967        C  0.22167275  0.44995514  0.76331483     0.03130
C968        C  0.21978221  0.48076971  0.73586601    -0.04740
C969        C  0.24757361  0.51141734  0.73780657    -0.01850
C970        C  0.27692488  0.51122781  0.76680529     0.03120
C971        C  0.25316333  0.41754872  0.81979733     0.37770
C972        C  0.24534964  0.54391638  0.71064720     0.37760
C973        C  0.30451892  0.54349951  0.76899123     0.36190
C974        C  0.19383547  0.41792777  0.76125897     0.36190
N975        N  0.32659939  0.56915229  0.77064254    -0.38630
N976        N  0.17151372  0.39248018  0.75971871    -0.38630
N977        N  0.24366032  0.56976578  0.68893167    -0.38080
N978        N  0.25477693  0.39193155  0.84178721    -0.38080
C979        C  0.21944805  0.98204898  0.80014388    -0.04750
C980        C  0.24923951  0.95320401  0.79997276    -0.01860
C981        C  0.27834645  0.95307400  0.77048199     0.03130
C982        C  0.27811717  0.98182099  0.74076561    -0.04740
C983        C  0.24831672  0.01066971  0.74096153    -0.01850
C984        C  0.21921653  0.01077058  0.77039182     0.03120
C985        C  0.24952628  0.92290996  0.82962388     0.37770
C986        C  0.24802826  0.04110346  0.71141965     0.37760
C987        C  0.18954917  0.04124681  0.77045559     0.36190
C988        C  0.30800965  0.92262317  0.77030951     0.36190
N989        N  0.16577562  0.06541173  0.77030745    -0.38630
N990        N  0.33178193  0.89845680  0.77032916    -0.38630
N991        N  0.24762554  0.06524230  0.68775832    -0.38080
N992        N  0.24990949  0.89887448  0.85338867    -0.38080
C993        C  0.00185658  0.20425891  0.79903874    -0.04750
C994        C  0.01234050  0.19430271  0.75968378    -0.01860
C995        C  0.01208226  0.22287194  0.72962153     0.03130
C996        C  0.00337070  0.26277056  0.73829251    -0.04740
C997        C  0.00826718  0.27339935  0.77830064    -0.01850
C998        C  0.00526107  0.24505449  0.80834430     0.03120
C999        C  0.03070326  0.15692476  0.75056714     0.37770
C1000       C  0.02513774  0.31111573  0.78882084     0.37760
C1001       C  0.01222909  0.25908573  0.84790457     0.36190
C1002       C  0.02843491  0.21162433  0.69189543     0.36190
N1003       N  0.01821904  0.27168055  0.87884893    -0.38630
N1004       N  0.04191263  0.20201027  0.66224432    -0.38630
N1005       N  0.03897070  0.34074496  0.79782137    -0.38080
N1006       N  0.04572927  0.12752042  0.74274860    -0.38080
C1007       C  0.49944081  0.20308052  0.73956043    -0.04750
C1008       C  0.46931056  0.20391125  0.76802178    -0.01860
C1009       C  0.46908150  0.23306530  0.79737712     0.03130
C1010       C  0.49901178  0.26169509  0.79861521    -0.04740
C1011       C  0.52921415  0.26076971  0.77021953    -0.01850
C1012       C  0.52939634  0.23167128  0.74083549     0.03120
C1013       C  0.43790450  0.17530286  0.76664215     0.37770
C1014       C  0.56080424  0.28918160  0.77172709     0.37760
C1015       C  0.56110478  0.23067321  0.71244581     0.36190
C1016       C  0.43739226  0.23405014  0.82577920     0.36190
N1017       N  0.58627696  0.22999420  0.68969894    -0.38630
N1018       N  0.41223638  0.23470965  0.84854516    -0.38630
N1019       N  0.58590806  0.31192454  0.77280222    -0.38080
N1020       N  0.41296026  0.15238169  0.76567226    -0.38080
C1021       C  0.99814644  0.76181011  0.79748663    -0.04750
C1022       C  0.96690969  0.73473272  0.79486400    -0.01860
C1023       C  0.96689841  0.70575730  0.76534813     0.03130
C1024       C  0.99810864  0.70358392  0.73816527    -0.04740
C1025       C  0.02938956  0.73058954  0.74085412    -0.01850
C1026       C  0.02940244  0.75956779  0.77036928     0.03120
C1027       C  0.93420113  0.73720697  0.82199649     0.37770
C1028       C  0.06217785  0.72796921  0.71384284     0.37760
C1029       C  0.06215159  0.78649241  0.77339152     0.36190
C1030       C  0.93423650  0.67870507  0.76245639     0.36190
N1031       N  0.08820650  0.80804009  0.77575514    -0.38630
N1032       N  0.90826500  0.65704235  0.76022329    -0.38630
N1033       N  0.08826511  0.72591587  0.69223290    -0.38080
N1034       N  0.90819060  0.73910743  0.84371444    -0.38080
C1035       C  0.77765686  0.98250816  0.79748415    -0.04750
C1036       C  0.76100671  0.01811542  0.78495258    -0.01860
C1037       C  0.73209838  0.01808393  0.75550993     0.03130
C1038       C  0.71978039  0.98244540  0.73858271    -0.04740
C1039       C  0.73646734  0.94684176  0.75109259    -0.01850
C1040       C  0.76535860  0.94687327  0.78051985     0.03120
C1041       C  0.77379788  0.05473873  0.80230716     0.37770
C1042       C  0.72371721  0.91018705  0.73373800     0.37760
C1043       C  0.78233026  0.91026147  0.79357066     0.36190
C1044       C  0.71511177  0.05466230  0.74242791     0.36190
N1045       N  0.79590182  0.88110055  0.80406258    -0.38630
N1046       N  0.70152172  0.08379910  0.73189619    -0.38630
N1047       N  0.71348763  0.88099831  0.71983434    -0.38080
N1048       N  0.78407325  0.08390777  0.81621555    -0.38080
C1049       C  0.77905996  0.76067011  0.01856855    -0.04750
C1050       C  0.77451340  0.73604302  0.98560316    -0.01860
C1051       C  0.74558147  0.70662750  0.98560864     0.03130
C1052       C  0.72107888  0.70170440  0.01858751    -0.04740
C1053       C  0.72566340  0.72631673  0.05157046    -0.01850
C1054       C  0.75456979  0.75573392  0.05155543     0.03120
C1055       C  0.79904072  0.74157430  0.95132505     0.37770
C1056       C  0.70113234  0.72083941  0.08586461     0.37760
C1057       C  0.75965605  0.78044668  0.08582737     0.36190
C1058       C  0.74040161  0.68199396  0.95131001     0.36190
N1059       N  0.76373015  0.80020740  0.11311138    -0.38630
N1060       N  0.73623425  0.66230684  0.92398910    -0.38630
N1061       N  0.68152467  0.71644857  0.11317309    -0.38080
N1062       N  0.81864179  0.74603120  0.92402341    -0.38080
C1063       C  0.77810260  0.48241398  0.73877823    -0.04750
C1064       C  0.77588650  0.45108501  0.76556020    -0.01860
C1065       C  0.74694466  0.45103499  0.79507273     0.03130
C1066       C  0.71997325  0.48233216  0.79807759    -0.04740
C1067       C  0.72230189  0.51374796  0.77140028    -0.01850
C1068       C  0.75123806  0.51378903  0.74188206     0.03120
C1069       C  0.80284908  0.41837667  0.76223996     0.37770
C1070       C  0.69550248  0.54657969  0.77487419     0.37760
C1071       C  0.75395374  0.54669253  0.71528113     0.36190
C1072       C  0.74437840  0.41822246  0.82179909     0.36190
N1073       N  0.75609089  0.57287214  0.69400239    -0.38630
N1074       N  0.74238790  0.39212956  0.84319796    -0.38630
N1075       N  0.67407004  0.57271044  0.77759438    -0.38080
N1076       N  0.82443788  0.39236272  0.75965742    -0.38080
C1077       C  0.77888542  0.70410472  0.51811745    -0.04750
C1078       C  0.77691994  0.73155234  0.54913131    -0.01860
C1079       C  0.74777331  0.76080975  0.54927553     0.03130
C1080       C  0.72027531  0.76285747  0.51843918    -0.04740
C1081       C  0.72222073  0.73540969  0.48743784    -0.01850
C1082       C  0.75139889  0.70617400  0.48726648     0.03120
C1083       C  0.80429207  0.72912312  0.58150675     0.37770
C1084       C  0.69472154  0.73776057  0.45517035     0.37760
C1085       C  0.75363652  0.67874589  0.45478599     0.36190
C1086       C  0.74552526  0.78824050  0.58176217     0.36190
N1087       N  0.75535187  0.65678959  0.42895435    -0.38630
N1088       N  0.74379613  0.81018779  0.60760168    -0.38630
N1089       N  0.67270464  0.73959012  0.42951463    -0.38080
N1090       N  0.82619359  0.72723119  0.60725674    -0.38080
C1091       C  0.49911579  0.76216548  0.73915422    -0.04750
C1092       C  0.46876929  0.76031317  0.76737739    -0.01860
C1093       C  0.46919873  0.73114990  0.79648819     0.03130
C1094       C  0.49999969  0.70349241  0.79777812    -0.04740
C1095       C  0.53039774  0.70538421  0.76960634    -0.01850
C1096       C  0.52994579  0.73454745  0.74045498     0.03120
C1097       C  0.43639578  0.78784730  0.76593916     0.37770
C1098       C  0.56275792  0.67785080  0.77108999     0.37760
C1099       C  0.56180457  0.73663567  0.71233928     0.36190
C1100       C  0.43724973  0.72905475  0.82451805     0.36190
N1101       N  0.58713914  0.73820843  0.68982925    -0.38630
N1102       N  0.41185124  0.72748696  0.84695728    -0.38630
N1103       N  0.58847698  0.65579585  0.77219161    -0.38080
N1104       N  0.41067943  0.80990701  0.76487631    -0.38080
loop_ 
_geom_bond_atom_site_label_1 
_geom_bond_atom_site_label_2 
_geom_bond_distance 
_geom_bond_site_symmetry_2 
_ccdc_geom_bond_type 
C1            C2   1.420       .  A
C1            C6   1.421       .  A
C1         C1091   1.493       .  S
C2            C3   1.400       .  A
C2            H7   1.083       .  S
C3            C4   1.402       .  A
C3          C139   1.496       .  S
C4            C5   1.402       .  A
C4            H8   1.081       .  S
C5            C6   1.402       .  A
C5          C362   1.498       .  S
C6            H9   1.083       .  S
C10          C11   1.421       .  A
C10          C15   1.422       .  A
C10        C1094   1.493       .  S
C11          C12   1.401       .  A
C11          H16   1.083       .  S
C12          C13   1.402       .  A
C12         C233   1.499       .  S
C13          C14   1.402       .  A
C13          H17   1.079       .  S
C14          C15   1.401       .  A
C14         C268   1.500       .  S
C15          H18   1.083       .  S
C19          C20   1.420       .  A
C19          C24   1.420       .  A
C19        C1077   1.489       .  S
C20          C21   1.400       .  A
C20          H25   1.083       .  S
C21          C22   1.403       .  A
C21         C347   1.497       .  S
C22          C23   1.401       .  A
C22          H26   1.079       .  S
C23          C24   1.400       .  A
C23         C767   1.497       .  S
C24          H27   1.083       .  S
C28          C29   1.419       .  A
C28          C33   1.419       .  A
C28        C1080   1.488       .  S
C29          C30   1.400       .  A
C29          H34   1.083       .  S
C30          C31   1.401       .  A
C30         C364   1.496       .  S
C31          C32   1.402       .  A
C31          H35   1.080       .  S
C32          C33   1.400       .  A
C32         C751   1.495       .  S
C33          H36   1.083       .  S
C37          C38   1.420       .  A
C37          C42   1.420       .  A
C37        C1063   1.488       .  S
C38          C39   1.400       .  A
C38          H43   1.083       .  S
C39          C40   1.400       .  A
C39         C219   1.496       .  S
C40          C41   1.402       .  A
C40          H44   1.079       .  S
C41          C42   1.400       .  A
C41         C765   1.497       .  S
C42          H45   1.083       .  S
C46          C47   1.419       .  A
C46          C51   1.418       .  A
C46        C1066   1.488       .  S
C47          C48   1.400       .  A
C47          H52   1.083       .  S
C48          C49   1.401       .  A
C48         C235   1.496       .  S
C49          C50   1.403       .  A
C49          H53   1.080       .  S
C50          C51   1.400       .  A
C50         C669   1.495       .  S
C51          H54   1.083       .  S
C55          C56   1.418       .  A
C55          C60   1.418       .  A
C55        C1049   1.482       .  S
C56          C57   1.399       .  A
C56          H61   1.083       .  S
C57          C58   1.403       .  A
C57         C719   1.496       .  S
C58          C59   1.402       .  A
C58          H62   1.080       .  S
C59          C60   1.399       .  A
C59         C318   1.496       .  S
C60          H63   1.083       .  S
C64          C65   1.417       .  A
C64          C69   1.418       .  A
C64        C1052   1.483       .  S
C65          C66   1.399       .  A
C65          H70   1.083       .  S
C66          C67   1.402       .  A
C66         C266   1.494       .  S
C67          C68   1.402       .  A
C67          H71   1.079       .  S
C68          C69   1.400       .  A
C68         C672   1.495       .  S
C69          H72   1.083       .  S
C73          C74   1.418       .  A
C73          C78   1.418       .  A
C73        C1035   1.481       .  S
C74          C75   1.401       .  A
C74          H79   1.083       .  S
C75          C76   1.402       .  A
C75         C721   1.497       .  S
C76          C77   1.402       .  A
C76          H80   1.079       .  S
C77          C78   1.400       .  A
C77         C189   1.497       .  S
C78          H81   1.083       .  S
C82          C83   1.417       .  A
C82          C87   1.417       .  A
C82        C1038   1.481       .  S
C83          C84   1.401       .  A
C83          H88   1.083       .  S
C84          C85   1.402       .  A
C84         C137   1.496       .  S
C85          C86   1.403       .  A
C85          H89   1.080       .  S
C86          C87   1.400       .  A
C86         C754   1.496       .  S
C87          H90   1.083       .  S
C91          C92   1.420       .  A
C91          C96   1.419       .  A
C91        C1021   1.489       .  S
C92          C93   1.400       .  A
C92          H97   1.083       .  S
C93          C94   1.401       .  A
C93         C187   1.496       .  S
C94          C95   1.401       .  A
C94          H98   1.080       .  S
C95          C96   1.400       .  A
C95         C316   1.495       .  S
C96          H99   1.083   1_655  S
C100        C101   1.419       .  A
C100        C105   1.420       .  A
C100       C1024   1.489       .  S
C101        C102   1.400   1_655  A
C101        H106   1.083       .  S
C102        C103   1.401       .  A
C102        C221   1.495   1_455  S
C103        C104   1.401   1_455  A
C103        H107   1.079       .  S
C104        C105   1.401       .  A
C104        C349   1.496       .  S
C105        H108   1.083       .  S
C109        C110   1.420       .  A
C109        C114   1.420       .  A
C109       C1007   1.491       .  S
C110        C111   1.400       .  A
C110        H115   1.083       .  S
C111        C112   1.401       .  A
C111        C624   1.495       .  S
C112        C113   1.401       .  A
C112        H116   1.080       .  S
C113        C114   1.400       .  A
C113        C140   1.495       .  S
C114        H117   1.083       .  S
C118        C119   1.420       .  A
C118        C123   1.420       .  A
C118       C1010   1.491       .  S
C119        C120   1.399       .  A
C119        H124   1.083       .  S
C120        C121   1.403       .  A
C120        C234   1.497       .  S
C121        C122   1.402       .  A
C121        H125   1.080       .  S
C122        C123   1.400       .  A
C122        C409   1.497       .  S
C123        H126   1.083       .  S
O127       Cu135   2.088       .  S
O127        C137   1.285       .  A
O128       Cu135   2.091       .  S
O128        C138   1.286       .  A
O129       Cu135   2.091       .  S
O129        C139   1.286       .  A
O130       Cu135   2.089   1_545  S
O130        C140   1.286       .  A
O131       Cu136   1.927   1_545  S
O131        C140   1.269       .  A
O132       Cu136   1.929       .  S
O132        C139   1.269       .  A
O133       Cu136   1.932       .  S
O133        C138   1.270       .  A
O134       Cu136   1.929       .  S
O134        C137   1.270       .  A
Cu135      Cu136   2.351       .  S
C138        C170   1.498       .  S
C141        C142   1.431       .  A
C141        C146   1.426       .  A
C141        C993   1.543   1_655  S
C142        C143   1.403   1_655  A
C142        H147   1.078       .  S
C143        C144   1.396       .  A
C143        C188   1.491   1_455  S
C144        C145   1.394       .  A
C144        H148   1.083       .  S
C145        C146   1.396   1_455  A
C145        C549   1.487   1_455  S
C146        H149   1.073       .  S
C150        C151   1.429       .  A
C150        C155   1.430       .  A
C150        C996   1.538   1_655  S
C151        C152   1.397       .  A
C151        H156   1.076       .  S
C152        C153   1.395   1_655  A
C152        C222   1.491       .  S
C153        C154   1.397   1_455  A
C153        H157   1.082       .  S
C154        C155   1.401       .  A
C154        C442   1.492       .  S
C155        H158   1.077       .  S
C159        C160   1.423       .  A
C159        C164   1.421       .  A
C159        C979   1.497       .  S
C160        C161   1.403       .  A
C160        H165   1.083       .  S
C161        C162   1.403       .  A
C161        C537   1.501       .  S
C162        C163   1.402       .  A
C162        H166   1.080       .  S
C163        C164   1.401       .  A
C163        C190   1.499       .  S
C164        H167   1.083       .  S
C168        C169   1.422       .  A
C168        C173   1.422       .  A
C168        C982   1.497       .  S
C169        C170   1.402       .  A
C169        H174   1.083       .  S
C170        C171   1.401       .  A
C171        C172   1.401       .  A
C171        H175   1.080       .  S
C172        C173   1.401       .  A
C172        C453   1.498       .  S
C173        H176   1.083       .  S
O177       Cu185   1.928       .  S
O177        C187   1.270       .  A
O178       Cu185   1.932   1_545  S
O178        C188   1.270       .  A
O179       Cu185   1.922       .  S
O179        C189   1.269       .  A
O180       Cu185   1.930   1_455  S
O180        C190   1.269       .  A
O181       Cu186   2.094   1_455  S
O181        C190   1.287       .  A
O182       Cu186   2.090       .  S
O182        C189   1.285       .  A
O183       Cu186   2.085   1_545  S
O183        C188   1.286       .  A
O184       Cu186   2.086       .  S
O184        C187   1.285       .  A
Cu185      Cu186   2.352       .  S
C191        C192   1.420       .  A
C191        C196   1.420       .  A
C191        C968   1.492       .  S
C192        C193   1.401       .  A
C192        H197   1.083       .  S
C193        C194   1.401       .  A
C193        C220   1.496       .  S
C194        C195   1.401       .  A
C194        H198   1.080       .  S
C195        C196   1.400       .  A
C195        C609   1.495       .  S
C196        H199   1.083       .  S
C200        C201   1.421       .  A
C200        C205   1.421       .  A
C200        C965   1.491       .  S
C201        C202   1.401       .  A
C201        H206   1.083       .  S
C202        C203   1.399       .  A
C202        C236   1.494       .  S
C203        C204   1.400       .  A
C203        H207   1.081       .  S
C204        C205   1.401       .  A
C204        C597   1.495       .  S
C205        H208   1.083       .  S
O209       Cu217   2.088       .  S
O209        C219   1.285       .  A
O210       Cu217   2.087   1_455  S
O210        C220   1.285       .  A
O211       Cu217   2.084       .  S
O211        C221   1.285       .  A
O212       Cu217   2.088       .  S
O212        C222   1.287       .  A
O213       Cu218   1.928       .  S
O213        C222   1.269       .  A
O214       Cu218   1.925       .  S
O214        C221   1.269       .  A
O215       Cu218   1.931   1_455  S
O215        C220   1.270       .  A
O216       Cu218   1.925       .  S
O216        C219   1.269       .  A
Cu217      Cu218   2.352       .  S
O223       Cu231   1.924       .  S
O223        C233   1.269       .  A
O224       Cu231   1.922       .  S
O224        C234   1.268       .  A
O225       Cu231   1.932       .  S
O225        C235   1.270       .  A
O226       Cu231   1.928       .  S
O226        C236   1.270       .  A
O227       Cu232   2.085       .  S
O227        C236   1.284       .  A
O228       Cu232   2.086       .  S
O228        C235   1.285       .  A
O229       Cu232   2.095       .  S
O229        C234   1.287       .  A
O230       Cu232   2.096       .  S
O230        C233   1.286       .  A
Cu231      Cu232   2.351       .  S
C237        C238   1.420       .  A
C237        C242   1.419       .  A
C237        C954   1.490       .  S
C238        C239   1.402       .  A
C238        H243   1.083       .  S
C239        C240   1.401       .  A
C239        C637   1.497       .  S
C240        C241   1.402       .  A
C240        H244   1.079       .  S
C241        C242   1.400       .  A
C241        C267   1.496       .  S
C242        H245   1.083       .  S
C246        C247   1.420       .  A
C246        C251   1.419       .  A
C246        C951   1.489       .  S
C247        C248   1.401       .  A
C247        H252   1.083       .  S
C248        C249   1.402       .  A
C248        C395   1.497       .  S
C249        C250   1.402       .  A
C249        H253   1.080       .  S
C250        C251   1.401       .  A
C250        C361   1.496       .  S
C251        H254   1.083       .  S
O255       Cu263   1.921       .  S
O255        C265   1.269       .  A
O256       Cu263   1.921       .  S
O256        C266   1.268       .  A
O257       Cu263   1.924       .  S
O257        C267   1.269       .  A
O258       Cu263   1.927   1_556  S
O258        C268   1.269       .  A
O259       Cu264   2.096   1_556  S
O259        C268   1.286       .  A
O260       Cu264   2.089       .  S
O260        C267   1.286       .  A
O261       Cu264   2.088       .  S
O261        C266   1.285       .  A
O262       Cu264   2.090       .  S
O262        C265   1.286       .  A
Cu263      Cu264   2.350       .  S
C265        C280   1.495       .  S
C269        C270   1.421       .  A
C269        C274   1.423       .  A
C269        C937   1.499       .  S
C270        C271   1.399       .  A
C270        H275   1.083       .  S
C271        C272   1.399       .  A
C271        C536   1.493       .  S
C272        C273   1.401       .  A
C272        H276   1.081       .  S
C273        C274   1.400       .  A
C273        C317   1.496       .  S
C274        H277   1.082       .  S
C278        C279   1.423       .  A
C278        C283   1.422       .  A
C278        C940   1.498       .  S
C279        C280   1.399       .  A
C279        H284   1.083       .  S
C280        C281   1.399       .  A
C281        C282   1.399       .  A
C281        H285   1.080       .  S
C282        C283   1.400       .  A
C282        C595   1.495       .  S
C283        H286   1.083       .  S
C287        C288   1.417       .  A
C287        C292   1.418       .  A
C287        C926   1.482       .  S
C288        C289   1.400       .  A
C288        H293   1.083       .  S
C289        C290   1.403   1_655  A
C289        C521   1.496       .  S
C290        C291   1.402       .  A
C290        H294   1.079       .  S
C291        C292   1.402   1_455  A
C291        C315   1.498       .  S
C292        H295   1.083       .  S
C296        C297   1.417       .  A
C296        C301   1.417       .  A
C296        C923   1.482       .  S
C297        C298   1.401   1_655  A
C297        H302   1.083       .  S
C298        C299   1.402       .  A
C298        C583   1.495       .  S
C299        C300   1.401       .  A
C299        H303   1.080       .  S
C300        C301   1.401   1_455  A
C300        C350   1.496       .  S
C301        H304   1.083       .  S
O305       Cu313   2.092   1_455  S
O305        C315   1.286       .  A
O306       Cu313   2.087   1_556  S
O306        C316   1.285       .  A
O307       Cu313   2.093   1_455  S
O307        C317   1.286       .  A
O308       Cu313   2.090       .  S
O308        C318   1.286       .  A
O309       Cu314   1.925       .  S
O309        C318   1.269       .  A
O310       Cu314   1.924   1_455  S
O310        C317   1.269       .  A
O311       Cu314   1.925   1_556  S
O311        C316   1.269       .  A
O312       Cu314   1.927   1_455  S
O312        C315   1.269       .  A
Cu313      Cu314   2.351       .  S
C319        C320   1.420       .  A
C319        C324   1.419       .  A
C319        C909   1.490       .  S
C320        C321   1.400       .  A
C320        H325   1.083       .  S
C321        C322   1.402       .  A
C321        C612   1.497       .  S
C322        C323   1.402       .  A
C322        H326   1.080       .  S
C323        C324   1.398       .  A
C323        C348   1.495       .  S
C324        H327   1.083       .  S
C328        C329   1.420       .  A
C328        C333   1.420       .  A
C328        C912   1.490       .  S
C329        C330   1.400       .  A
C329        H334   1.083       .  S
C330        C331   1.401       .  A
C330        C455   1.495       .  S
C331        C332   1.401       .  A
C331        H335   1.080       .  S
C332        C333   1.400       .  A
C332        C363   1.495       .  S
C333        H336   1.083       .  S
O337       Cu345   1.919       .  S
O337        C347   1.268       .  A
O338       Cu345   1.924   1_455  S
O338        C348   1.268       .  A
O339       Cu345   1.926       .  S
O339        C349   1.269       .  A
O340       Cu345   1.928   1_455  S
O340        C350   1.270       .  A
O341       Cu346   2.087       .  S
O341        C350   1.285       .  A
O342       Cu346   2.089   1_655  S
O342        C349   1.285       .  A
O343       Cu346   2.091       .  S
O343        C348   1.286       .  A
O344       Cu346   2.095   1_655  S
O344        C347   1.286       .  A
Cu345      Cu346   2.350   1_655  S
O351       Cu359   2.090       .  S
O351        C361   1.286       .  A
O352       Cu359   2.092       .  S
O352        C362   1.286       .  A
O353       Cu359   2.088       .  S
O353        C363   1.285       .  A
O354       Cu359   2.089       .  S
O354        C364   1.286       .  A
O355       Cu360   1.925       .  S
O355        C364   1.269       .  A
O356       Cu360   1.925       .  S
O356        C363   1.269       .  A
O357       Cu360   1.930       .  S
O357        C362   1.270       .  A
O358       Cu360   1.930       .  S
O358        C361   1.270       .  A
Cu359      Cu360   2.351       .  S
C365        C366   1.419       .  A
C365        C370   1.420       .  A
C365        C898   1.489       .  S
C366        C367   1.400       .  A
C366        H371   1.083       .  S
C367        C368   1.402       .  A
C367        C623   1.496       .  S
C368        C369   1.401       .  A
C368        H372   1.080       .  S
C369        C370   1.401       .  A
C369        C396   1.497       .  S
C370        H373   1.083       .  S
C374        C375   1.420       .  A
C374        C379   1.420       .  A
C374        C895   1.489       .  S
C375        C376   1.401       .  A
C375        H380   1.083       .  S
C376        C377   1.400       .  A
C376        C638   1.496       .  S
C377        C378   1.400       .  A
C377        H381   1.081       .  S
C378        C379   1.401       .  A
C378        C410   1.495       .  S
C379        H382   1.083       .  S
O383       Cu391   1.926       .  S
O383        C393   1.269       .  A
O384       Cu391   1.925       .  S
O384        C394   1.269       .  A
O385       Cu391   1.931       .  S
O385        C395   1.270       .  A
O386       Cu391   1.930   1_545  S
O386        C396   1.270       .  A
O387       Cu392   2.090   1_545  S
O387        C396   1.286       .  A
O388       Cu392   2.090       .  S
O388        C395   1.286       .  A
O389       Cu392   2.089       .  S
O389        C394   1.286       .  A
O390       Cu392   2.088       .  S
O390        C393   1.286       .  A
Cu391      Cu392   2.352       .  S
C393        C702   1.495       .  S
C394        C486   1.495       .  S
O397       Cu405   1.927       .  S
O397        C407   1.269       .  A
O398       Cu405   1.927       .  S
O398        C408   1.269       .  A
O399       Cu405   1.931   1_556  S
O399        C409   1.270       .  A
O400       Cu405   1.926       .  S
O400        C410   1.269       .  A
O401       Cu406   2.089       .  S
O401        C410   1.285       .  A
O402       Cu406   2.089   1_556  S
O402        C409   1.286       .  A
O403       Cu406   2.089       .  S
O403        C408   1.286       .  A
O404       Cu406   2.094       .  S
O404        C407   1.286       .  A
Cu405      Cu406   2.351       .  S
C407        C470   1.498       .  S
C408        C684   1.496       .  S
C411        C412   1.420       .  A
C411        C416   1.421       .  A
C411        C881   1.492       .  S
C412        C413   1.400       .  A
C412        H417   1.083       .  S
C413        C414   1.401       .  A
C413        C611   1.495       .  S
C414        C415   1.400       .  A
C414        H418   1.080       .  S
C415        C416   1.401       .  A
C415        C439   1.496       .  S
C416        H419   1.083       .  S
C420        C421   1.421       .  A
C420        C425   1.420       .  A
C420        C884   1.492       .  S
C421        C422   1.401       .  A
C421        H426   1.083       .  S
C422        C423   1.401       .  A
C422        C625   1.497       .  S
C423        C424   1.401       .  A
C423        H427   1.080       .  S
C424        C425   1.400       .  A
C424        C456   1.496       .  S
C425        H428   1.083       .  S
O429       Cu437   2.086   1_455  S
O429        C439   1.285       .  A
O430       Cu437   2.087       .  S
O430        C440   1.285       .  A
O431       Cu437   2.090       .  S
O431        C441   1.286       .  A
O432       Cu437   2.088       .  S
O432        C442   1.286       .  A
O433       Cu438   1.925       .  S
O433        C442   1.269       .  A
O434       Cu438   1.922       .  S
O434        C441   1.268       .  A
O435       Cu438   1.929       .  S
O435        C440   1.270       .  A
O436       Cu438   1.933   1_455  S
O436        C439   1.271       .  A
Cu437      Cu438   2.352       .  S
C440        C734   1.496       .  S
C441        C506   1.496       .  S
O443       Cu451   2.092       .  S
O443        C453   1.286       .  A
O444       Cu451   2.086       .  S
O444        C454   1.285       .  A
O445       Cu451   2.089       .  S
O445        C455   1.286       .  A
O446       Cu451   2.090   1_545  S
O446        C456   1.286       .  A
O447       Cu452   1.927   1_545  S
O447        C456   1.269       .  A
O448       Cu452   1.924       .  S
O448        C455   1.269       .  A
O449       Cu452   1.930       .  S
O449        C454   1.270       .  A
O450       Cu452   1.929       .  S
O450        C453   1.270       .  A
Cu451      Cu452   2.351       .  S
C454        C488   1.495       .  S
C457        C458   1.422       .  A
C457        C462   1.423       .  A
C457        C870   1.499       .  S
C458        C459   1.400       .  A
C458        H463   1.083       .  S
C459        C460   1.399       .  A
C459        C535   1.494       .  S
C460        C461   1.398       .  A
C460        H464   1.081       .  S
C461        C462   1.402       .  A
C461        C552   1.495       .  S
C462        H465   1.083       .  S
C466        C467   1.422       .  A
C466        C471   1.423       .  A
C466        C867   1.498       .  S
C467        C468   1.400       .  A
C467        H472   1.083       .  S
C468        C469   1.401       .  A
C468        C596   1.497       .  S
C469        C470   1.401       .  A
C469        H473   1.080       .  S
C470        C471   1.401       .  A
C471        H474   1.083       .  S
C475        C476   1.418       .  A
C475        C480   1.419       .  A
C475        C853   1.484       .  S
C476        C477   1.400       .  A
C476        H481   1.083       .  S
C477        C478   1.401       .  A
C477        C538   1.494       .  S
C478        C479   1.401       .  A
C478        H482   1.080       .  S
C479        C480   1.400       .  A
C479        C524   1.495       .  S
C480        H483   1.083       .  S
C484        C485   1.418       .  A
C484        C489   1.418       .  A
C484        C856   1.484       .  S
C485        C486   1.401       .  A
C485        H490   1.083       .  S
C486        C487   1.402       .  A
C487        C488   1.401       .  A
C487        H491   1.081       .  S
C488        C489   1.400       .  A
C489        H492   1.083       .  S
C493        C494   1.418       .  A
C493        C498   1.416       .  A
C493        C839   1.480       .  S
C494        C495   1.401       .  A
C494        H499   1.083       .  S
C495        C496   1.404       .  A
C495        C522   1.497       .  S
C496        C497   1.402       .  A
C496        H500   1.080       .  S
C497        C498   1.399       .  A
C497        C550   1.495       .  S
C498        H501   1.083       .  S
C502        C503   1.417       .  A
C502        C507   1.416       .  A
C502        C842   1.480       .  S
C503        C504   1.401       .  A
C503        H508   1.083       .  S
C504        C505   1.402       .  A
C504        C584   1.497       .  S
C505        C506   1.403       .  A
C505        H509   1.079       .  S
C506        C507   1.399       .  A
C507        H510   1.083       .  S
O511       Cu519   2.091       .  S
O511        C521   1.286       .  A
O512       Cu519   2.095   1_545  S
O512        C522   1.286       .  A
O513       Cu519   2.088       .  S
O513        C523   1.286       .  A
O514       Cu519   2.088   1_455  S
O514        C524   1.285       .  A
O515       Cu520   1.924   1_455  S
O515        C524   1.269       .  A
O516       Cu520   1.925       .  S
O516        C523   1.269       .  A
O517       Cu520   1.922   1_545  S
O517        C522   1.268       .  A
O518       Cu520   1.923       .  S
O518        C521   1.269       .  A
Cu519      Cu520   2.350       .  S
C523        C693   1.495       .  S
O525       Cu533   2.086   1_545  S
O525        C535   1.285       .  A
O526       Cu533   2.083       .  S
O526        C536   1.285       .  A
O527       Cu533   2.096   1_556  S
O527        C537   1.287       .  A
O528       Cu533   2.088       .  S
O528        C538   1.285       .  A
O529       Cu534   1.924       .  S
O529        C538   1.269       .  A
O530       Cu534   1.932   1_556  S
O530        C537   1.270       .  A
O531       Cu534   1.930       .  S
O531        C536   1.270       .  A
O532       Cu534   1.926   1_545  S
O532        C535   1.269       .  A
Cu533      Cu534   2.352       .  S
O539       Cu547   1.929   1_556  S
O539        C549   1.268       .  A
O540       Cu547   1.931       .  S
O540        C550   1.270       .  A
O541       Cu547   1.932       .  S
O541        C551   1.271       .  A
O542       Cu547   1.935   1_455  S
O542        C552   1.271       .  A
O543       Cu548   2.085   1_455  S
O543        C552   1.285       .  A
O544       Cu548   2.082       .  S
O544        C551   1.284       .  A
O545       Cu548   2.084       .  S
O545        C550   1.285       .  A
O546       Cu548   2.080   1_556  S
O546        C549   1.286       .  A
Cu547      Cu548   2.354       .  S
C551        C675   1.495       .  S
C553        C554   1.420       .  A
C553        C558   1.421       .  A
C553        C825   1.493       .  S
C554        C555   1.399       .  A
C554        H559   1.083       .  S
C555        C556   1.400       .  A
C555        C582   1.494       .  S
C556        C557   1.401       .  A
C556        H560   1.081       .  S
C557        C558   1.401       .  A
C557        C610   1.496       .  S
C558        H561   1.083       .  S
C562        C563   1.420       .  A
C562        C567   1.420       .  A
C562        C828   1.493       .  S
C563        C564   1.399       .  A
C563        H568   1.083       .  S
C564        C565   1.404       .  A
C564        C640   1.496       .  S
C565        C566   1.402       .  A
C565        H569   1.080       .  S
C566        C567   1.400       .  A
C566        C598   1.497       .  S
C567        H570   1.083       .  S
O571       Cu579   1.925   1_655  S
O571        C581   1.269       .  A
O572       Cu579   1.926       .  S
O572        C582   1.269       .  A
O573       Cu579   1.924       .  S
O573        C583   1.269       .  A
O574       Cu579   1.927       .  S
O574        C584   1.269   1_455  A
O575       Cu580   2.089       .  S
O575        C584   1.285       .  A
O576       Cu580   2.090   1_455  S
O576        C583   1.286       .  A
O577       Cu580   2.088   1_455  S
O577        C582   1.286       .  A
O578       Cu580   2.089       .  S
O578        C581   1.286       .  A
Cu579      Cu580   2.351   1_455  S
C581        C652   1.495       .  S
O585       Cu593   1.924       .  S
O585        C595   1.269       .  A
O586       Cu593   1.926       .  S
O586        C596   1.269       .  A
O587       Cu593   1.924   1_556  S
O587        C597   1.269       .  A
O588       Cu593   1.937       .  S
O588        C598   1.270       .  A
O589       Cu594   2.088       .  S
O589        C598   1.286       .  A
O590       Cu594   2.089   1_556  S
O590        C597   1.285       .  A
O591       Cu594   2.092       .  S
O591        C596   1.286       .  A
O592       Cu594   2.087       .  S
O592        C595   1.285       .  A
Cu593      Cu594   2.351       .  S
O599       Cu607   1.928       .  S
O599        C609   1.270       .  A
O600       Cu607   1.927       .  S
O600        C610   1.269       .  A
O601       Cu607   1.922       .  S
O601        C611   1.269       .  A
O602       Cu607   1.925       .  S
O602        C612   1.269       .  A
O603       Cu608   2.093       .  S
O603        C612   1.286       .  A
O604       Cu608   2.089       .  S
O604        C611   1.286       .  A
O605       Cu608   2.091       .  S
O605        C610   1.286       .  A
O606       Cu608   2.086       .  S
O606        C609   1.285       .  A
Cu607      Cu608   2.351       .  S
O613       Cu621   1.928       .  S
O613        C623   1.269       .  A
O614       Cu621   1.927       .  S
O614        C624   1.269       .  A
O615       Cu621   1.927       .  S
O615        C625   1.269       .  A
O616       Cu621   1.926       .  S
O616        C626   1.269       .  A
O617       Cu622   2.092       .  S
O617        C626   1.286       .  A
O618       Cu622   2.091       .  S
O618        C625   1.286       .  A
O619       Cu622   2.089       .  S
O619        C624   1.286       .  A
O620       Cu622   2.090       .  S
O620        C623   1.286       .  A
Cu621      Cu622   2.351       .  S
C626        C725   1.498       .  S
O627       Cu635   2.087       .  S
O627        C637   1.285       .  A
O628       Cu635   2.087       .  S
O628        C638   1.285       .  A
O629       Cu635   2.092       .  S
O629        C639   1.286       .  A
O630       Cu635   2.097       .  S
O630        C640   1.287       .  A
O631       Cu636   1.920       .  S
O631        C640   1.267       .  A
O632       Cu636   1.918       .  S
O632        C639   1.268       .  A
O633       Cu636   1.929       .  S
O633        C638   1.270       .  A
O634       Cu636   1.932       .  S
O634        C637   1.270       .  A
Cu635      Cu636   2.351       .  S
C639        C643   1.496       .  S
C641        C642   1.418       .  A
C641        C646   1.418       .  A
C641        C811   1.482       .  S
C642        C643   1.399       .  A
C642        H647   1.083       .  S
C643        C644   1.402       .  A
C644        C645   1.402       .  A
C644        H648   1.079       .  S
C645        C646   1.399       .  A
C645        C670   1.496       .  S
C646        H649   1.083       .  S
C650        C651   1.417       .  A
C650        C655   1.417       .  A
C650        C814   1.482       .  S
C651        C652   1.399       .  A
C651        H656   1.083       .  S
C652        C653   1.403       .  A
C653        C654   1.403       .  A
C653        H657   1.080       .  S
C654        C655   1.399       .  A
C654        C766   1.494       .  S
C655        H658   1.083       .  S
O659       Cu667   2.089   1_556  S
O659        C669   1.286       .  A
O660       Cu667   2.093       .  S
O660        C670   1.286       .  A
O661       Cu667   2.090       .  S
O661        C671   1.286       .  A
O662       Cu667   2.088       .  S
O662        C672   1.285       .  A
O663       Cu668   1.923       .  S
O663        C672   1.269       .  A
O664       Cu668   1.924       .  S
O664        C671   1.269       .  A
O665       Cu668   1.920       .  S
O665        C670   1.268       .  A
O666       Cu668   1.923   1_556  S
O666        C669   1.268       .  A
Cu667      Cu668   2.350       .  S
C671        C686   1.496       .  S
C673        C674   1.416       .  A
C673        C678   1.417       .  A
C673        C797   1.480       .  S
C674        C675   1.400       .  A
C674        H679   1.083       .  S
C675        C676   1.400       .  A
C676        C677   1.403       .  A
C676        H680   1.079       .  S
C677        C678   1.400       .  A
C677        C720   1.495       .  S
C678        H681   1.083       .  S
C682        C683   1.417       .  A
C682        C687   1.417       .  A
C682        C800   1.480       .  S
C683        C684   1.400       .  A
C683        H688   1.083       .  S
C684        C685   1.402       .  A
C685        C686   1.402       .  A
C685        H689   1.080       .  S
C686        C687   1.400       .  A
C687        H690   1.083       .  S
C691        C692   1.418       .  A
C691        C696   1.418       .  A
C691        C783   1.486       .  S
C692        C693   1.399       .  A
C692        H697   1.083       .  S
C693        C694   1.401       .  A
C694        C695   1.402       .  A
C694        H698   1.079       .  S
C695        C696   1.400       .  A
C695        C722   1.495       .  S
C696        H699   1.083       .  S
C700        C701   1.418       .  A
C700        C705   1.419       .  A
C700        C786   1.486       .  S
C701        C702   1.399       .  A
C701        H706   1.083       .  S
C702        C703   1.402       .  A
C703        C704   1.402       .  A
C703        H707   1.080       .  S
C704        C705   1.399       .  A
C704        C753   1.495       .  S
C705        H708   1.083       .  S
O709       Cu717   2.093       .  S
O709        C719   1.286       .  A
O710       Cu717   2.092   1_545  S
O710        C720   1.286       .  A
O711       Cu717   2.092   1_556  S
O711        C721   1.285       .  A
O712       Cu717   2.089       .  S
O712        C722   1.286       .  A
O713       Cu718   1.923       .  S
O713        C722   1.269       .  A
O714       Cu718   1.921   1_556  S
O714        C721   1.269       .  A
O715       Cu718   1.917   1_545  S
O715        C720   1.268       .  A
O716       Cu718   1.918       .  S
O716        C719   1.268       .  A
Cu717      Cu718   2.350       .  S
C723        C724   1.418       .  A
C723        C728   1.418       .  A
C723        C769   1.482       .  S
C724        C725   1.401       .  A
C724        H729   1.083       .  S
C725        C726   1.402       .  A
C726        C727   1.402       .  A
C726        H730   1.079       .  S
C727        C728   1.401       .  A
C727        C752   1.497       .  S
C728        H731   1.083       .  S
C732        C733   1.417       .  A
C732        C737   1.418       .  A
C732        C772   1.482       .  S
C733        C734   1.401       .  A
C733        H738   1.083       .  S
C734        C735   1.401       .  A
C735        C736   1.402       .  A
C735        H739   1.080       .  S
C736        C737   1.401       .  A
C736        C768   1.497       .  S
C737        H740   1.083       .  S
O741       Cu749   1.925       .  S
O741        C751   1.269       .  A
O742       Cu749   1.925   1_545  S
O742        C752   1.269       .  A
O743       Cu749   1.923       .  S
O743        C753   1.268       .  A
O744       Cu749   1.923       .  S
O744        C754   1.269       .  A
O745       Cu750   2.091       .  S
O745        C754   1.286       .  A
O746       Cu750   2.091       .  S
O746        C753   1.286       .  A
O747       Cu750   2.092   1_545  S
O747        C752   1.286       .  A
O748       Cu750   2.089       .  S
O748        C751   1.286       .  A
Cu749      Cu750   2.351       .  S
O755       Cu763   1.918       .  S
O755        C765   1.268       .  A
O756       Cu763   1.923       .  S
O756        C766   1.268       .  A
O757       Cu763   1.928       .  S
O757        C767   1.269       .  A
O758       Cu763   1.924       .  S
O758        C768   1.269       .  A
O759       Cu764   2.092       .  S
O759        C768   1.286       .  A
O760       Cu764   2.089       .  S
O760        C767   1.285       .  A
O761       Cu764   2.089       .  S
O761        C766   1.286       .  A
O762       Cu764   2.094       .  S
O762        C765   1.286       .  A
Cu763      Cu764   2.350       .  S
C769        C770   1.411       .  A
C769        C774   1.411       .  A
C770        C771   1.410       .  A
C770        C775   1.451       .  S
C771        C772   1.411       .  A
C771        C778   1.451       .  S
C772        C773   1.411       .  A
C773        C774   1.411       .  A
C773        C776   1.450       .  S
C774        C777   1.450       .  S
C775        N782   1.157       .  T
C776        N781   1.157       .  T
C777        N779   1.157       .  T
C778        N780   1.157       .  T
C783        C784   1.414       .  A
C783        C788   1.413   1_565  A
C784        C785   1.410       .  A
C784        C789   1.451       .  S
C785        C786   1.413       .  A
C785        C792   1.451       .  S
C786        C787   1.414   1_565  A
C787        C788   1.409       .  A
C787        C790   1.452       .  S
C788        C791   1.452       .  S
C789        N796   1.157       .  T
C790        N795   1.157       .  T
C791        N793   1.157       .  T
C792        N794   1.157       .  T
C797        C798   1.411       .  A
C797        C802   1.411   1_554  A
C798        C799   1.410       .  A
C798        C803   1.450       .  S
C799        C800   1.411       .  A
C799        C806   1.450       .  S
C800        C801   1.411   1_554  A
C801        C802   1.409       .  A
C801        C804   1.451       .  S
C802        C805   1.451       .  S
C803        N810   1.157       .  T
C804        N809   1.157       .  T
C805        N807   1.157       .  T
C806        N808   1.157       .  T
C811        C812   1.412       .  A
C811        C816   1.412       .  A
C812        C813   1.408       .  A
C812        C817   1.451       .  S
C813        C814   1.412       .  A
C813        C820   1.452       .  S
C814        C815   1.412       .  A
C815        C816   1.409       .  A
C815        C818   1.451       .  S
C816        C819   1.451       .  S
C817        N824   1.157       .  T
C818        N823   1.157       .  T
C819        N821   1.157       .  T
C820        N822   1.157       .  T
C825        C826   1.415       .  A
C825        C830   1.416       .  A
C826        C827   1.412       .  A
C826        C831   1.451       .  S
C827        C828   1.416       .  A
C827        C834   1.452       .  S
C828        C829   1.415       .  A
C829        C830   1.410       .  A
C829        C832   1.452       .  S
C830        C833   1.452       .  S
C831        N838   1.157       .  T
C832        N837   1.157       .  T
C833        N835   1.157       .  T
C834        N836   1.157       .  T
C839        C840   1.411   1_655  A
C839        C844   1.411       .  A
C840        C841   1.410       .  A
C840        C845   1.450       .  S
C841        C842   1.411   1_455  A
C841        C848   1.450       .  S
C842        C843   1.411       .  A
C843        C844   1.409       .  A
C843        C846   1.451       .  S
C844        C847   1.451       .  S
C845        N852   1.157       .  T
C846        N851   1.157       .  T
C847        N849   1.157       .  T
C848        N850   1.157       .  T
C853        C854   1.413       .  A
C853        C858   1.412   1_565  A
C854        C855   1.409       .  A
C854        C859   1.452       .  S
C855        C856   1.413       .  A
C855        C862   1.452       .  S
C856        C857   1.412   1_565  A
C857        C858   1.411       .  A
C857        C860   1.451       .  S
C858        C861   1.451       .  S
C859        N866   1.157       .  T
C860        N865   1.157       .  T
C861        N863   1.157       .  T
C862        N864   1.157       .  T
C867        C868   1.417       .  A
C867        C872   1.416   1_554  A
C868        C869   1.411       .  A
C868        C873   1.453       .  S
C869        C870   1.417       .  A
C869        C876   1.453       .  S
C870        C871   1.417   1_554  A
C871        C872   1.413       .  A
C871        C874   1.452       .  S
C872        C875   1.452       .  S
C873        N880   1.158       .  T
C874        N879   1.157       .  T
C875        N877   1.157       .  T
C876        N878   1.157       .  T
C881        C882   1.415       .  A
C881        C886   1.415       .  A
C882        C883   1.410       .  A
C882        C887   1.452       .  S
C883        C884   1.415       .  A
C883        C890   1.452       .  S
C884        C885   1.415       .  A
C885        C886   1.412       .  A
C885        C888   1.451       .  S
C886        C889   1.451       .  S
C887        N894   1.157       .  T
C888        N893   1.157       .  T
C889        N891   1.157       .  T
C890        N892   1.157       .  T
C895        C896   1.415       .  A
C895        C900   1.413       .  A
C896        C897   1.411       .  A
C896        C901   1.451       .  S
C897        C898   1.413       .  A
C897        C904   1.451       .  S
C898        C899   1.414       .  A
C899        C900   1.411       .  A
C899        C902   1.451       .  S
C900        C903   1.451       .  S
C901        N908   1.157       .  T
C902        N907   1.157       .  T
C903        N905   1.157       .  T
C904        N906   1.157       .  T
C909        C910   1.414       .  A
C909        C914   1.415       .  A
C910        C911   1.411       .  A
C910        C915   1.452       .  S
C911        C912   1.414       .  A
C911        C918   1.451       .  S
C912        C913   1.415       .  A
C913        C914   1.409       .  A
C913        C916   1.452       .  S
C914        C917   1.452       .  S
C915        N922   1.157       .  T
C916        N921   1.157       .  T
C917        N919   1.157       .  T
C918        N920   1.157       .  T
C923        C924   1.411       .  A
C923        C928   1.412   1_655  A
C924        C925   1.411       .  A
C924        C929   1.450       .  S
C925        C926   1.411       .  A
C925        C932   1.450       .  S
C926        C927   1.411   1_655  A
C927        C928   1.409       .  A
C927        C930   1.451       .  S
C928        C931   1.451       .  S
C929        N936   1.157       .  T
C930        N935   1.157       .  T
C931        N933   1.157       .  T
C932        N934   1.157       .  T
C937        C938   1.417       .  A
C937        C942   1.419   1_554  A
C938        C939   1.412       .  A
C938        C943   1.452       .  S
C939        C940   1.418       .  A
C939        C946   1.453       .  S
C940        C941   1.416   1_554  A
C941        C942   1.411       .  A
C941        C944   1.453       .  S
C942        C945   1.453       .  S
C943        N950   1.157       .  T
C944        N949   1.158       .  T
C945        N947   1.158       .  T
C946        N948   1.158       .  T
C951        C952   1.414       .  A
C951        C956   1.413       .  A
C952        C953   1.411       .  A
C952        C957   1.452       .  S
C953        C954   1.414       .  A
C953        C960   1.452       .  S
C954        C955   1.414       .  A
C955        C956   1.411       .  A
C955        C958   1.451       .  S
C956        C959   1.451       .  S
C957        N964   1.157       .  T
C958        N963   1.157       .  T
C959        N961   1.157       .  T
C960        N962   1.157       .  T
C965        C966   1.414       .  A
C965        C970   1.415       .  A
C966        C967   1.412       .  A
C966        C971   1.451       .  S
C967        C968   1.415       .  A
C967        C974   1.451       .  S
C968        C969   1.415       .  A
C969        C970   1.410       .  A
C969        C972   1.452       .  S
C970        C973   1.452       .  S
C971        N978   1.157       .  T
C972        N977   1.157       .  T
C973        N975   1.157       .  T
C974        N976   1.157       .  T
C979        C980   1.416       .  A
C979        C984   1.416   1_565  A
C980        C981   1.413       .  A
C980        C985   1.452       .  S
C981        C982   1.416       .  A
C981        C988   1.451       .  S
C982        C983   1.416   1_565  A
C983        C984   1.412       .  A
C983        C986   1.452       .  S
C984        C987   1.452       .  S
C985        N992   1.157       .  T
C986        N991   1.157       .  T
C987        N989   1.157       .  T
C988        N990   1.157       .  T
C993        C994   1.430       .  A
C993        C998   1.433       .  A
C994        C995   1.420       .  A
C994        C999   1.455       .  S
C995        C996   1.425       .  A
C995       C1002   1.454       .  S
C996        C997   1.423       .  A
C997        C998   1.418       .  A
C997       C1000   1.456       .  S
C998       C1001   1.452       .  S
C999       N1006   1.158       .  T
C1000      N1005   1.158       .  T
C1001      N1003   1.158       .  T
C1002      N1004   1.158       .  T
C1007      C1008   1.414       .  A
C1007      C1012   1.415       .  A
C1008      C1009   1.411       .  A
C1008      C1013   1.452       .  S
C1009      C1010   1.415       .  A
C1009      C1016   1.452       .  S
C1010      C1011   1.414       .  A
C1011      C1012   1.410       .  A
C1011      C1014   1.452       .  S
C1012      C1015   1.452       .  S
C1013      N1020   1.157       .  T
C1014      N1019   1.157       .  T
C1015      N1017   1.157       .  T
C1016      N1018   1.157       .  T
C1021      C1022   1.414       .  A
C1021      C1026   1.413   1_655  A
C1022      C1023   1.410       .  A
C1022      C1027   1.452       .  S
C1023      C1024   1.413       .  A
C1023      C1030   1.452       .  S
C1024      C1025   1.414   1_655  A
C1025      C1026   1.410       .  A
C1025      C1028   1.451       .  S
C1026      C1029   1.451       .  S
C1027      N1034   1.157       .  T
C1028      N1033   1.157       .  T
C1029      N1031   1.157       .  T
C1030      N1032   1.157       .  T
C1035      C1036   1.411   1_565  A
C1035      C1040   1.411       .  A
C1036      C1037   1.410       .  A
C1036      C1041   1.450       .  S
C1037      C1038   1.411   1_545  A
C1037      C1044   1.450       .  S
C1038      C1039   1.411       .  A
C1039      C1040   1.409       .  A
C1039      C1042   1.451       .  S
C1040      C1043   1.451       .  S
C1041      N1048   1.157       .  T
C1042      N1047   1.157       .  T
C1043      N1045   1.157       .  T
C1044      N1046   1.157       .  T
C1049      C1050   1.412   1_554  A
C1049      C1054   1.412       .  A
C1050      C1051   1.409       .  A
C1050      C1055   1.451       .  S
C1051      C1052   1.412   1_556  A
C1051      C1058   1.451       .  S
C1052      C1053   1.412       .  A
C1053      C1054   1.409       .  A
C1053      C1056   1.451       .  S
C1054      C1057   1.452       .  S
C1055      N1062   1.157       .  T
C1056      N1061   1.157       .  T
C1057      N1059   1.157       .  T
C1058      N1060   1.157       .  T
C1063      C1064   1.413       .  A
C1063      C1068   1.414       .  A
C1064      C1065   1.410       .  A
C1064      C1069   1.451       .  S
C1065      C1066   1.414       .  A
C1065      C1072   1.452       .  S
C1066      C1067   1.413       .  A
C1067      C1068   1.410       .  A
C1067      C1070   1.452       .  S
C1068      C1071   1.452       .  S
C1069      N1076   1.157       .  T
C1070      N1075   1.157       .  T
C1071      N1073   1.157       .  T
C1072      N1074   1.157       .  T
C1077      C1078   1.414       .  A
C1077      C1082   1.414       .  A
C1078      C1079   1.410       .  A
C1078      C1083   1.452       .  S
C1079      C1080   1.414       .  A
C1079      C1086   1.452       .  S
C1080      C1081   1.413       .  A
C1081      C1082   1.410       .  A
C1081      C1084   1.451       .  S
C1082      C1085   1.451       .  S
C1083      N1090   1.157       .  T
C1084      N1089   1.157       .  T
C1085      N1087   1.157       .  T
C1086      N1088   1.157       .  T
C1091      C1092   1.415       .  A
C1091      C1096   1.414       .  A
C1092      C1093   1.411       .  A
C1092      C1097   1.452       .  S
C1093      C1094   1.414       .  A
C1093      C1100   1.452       .  S
C1094      C1095   1.415       .  A
C1095      C1096   1.412       .  A
C1095      C1098   1.452       .  S
C1096      C1099   1.451       .  S
C1097      N1104   1.157       .  T
C1098      N1103   1.157       .  T
C1099      N1101   1.157       .  T
C1100      N1102   1.157       .  T
