geometry optimzed in LAMMPS
_audit_creation_date              2020-11-30 
_audit_creation_method            'lammps2cif' 
_symmetry_space_group_name_H-M    'P1' 
_symmetry_Int_Tables_number       1 
_symmetry_cell_setting            triclinic 
loop_ 
_symmetry_equiv_pos_as_xyz 
  x,y,z 
_cell_length_a                    36.88842688975302 
_cell_length_b                    36.884731223364334 
_cell_length_c                    44.769794556067005 
_cell_angle_alpha                 89.7883412684395 
_cell_angle_beta                  90.29622249672126 
_cell_angle_gamma                 91.4003545253627 
loop_ 
_atom_site_label 
_atom_site_type_symbol 
_atom_site_fract_x 
_atom_site_fract_y 
_atom_site_fract_z 
_atom_site_charge 
N1          N  0.17643765  0.99575015  0.66085370    -0.26910
N2          N  0.19445776  0.99368256  0.68631767    -0.34760
C3          C  0.17069430  0.99208873  0.70894481     0.01430
C4          C  0.13570233  0.99327724  0.69732641     0.07460
C5          C  0.14068863  0.99572968  0.66659792    -0.05640
H6          H  0.17864346  0.99038962  0.73217020     0.08130
H7          H  0.12022435  0.99816629  0.64943151     0.09330
Cu8        Cu  0.25057913  0.99487068  0.68925404     0.44170
Cu9        Cu  0.20150024  0.49871978  0.61952974     0.41990
Cu10       Cu  0.30010018  0.50534962  0.62013394     0.43880
N11         N  0.30658355  0.00003458  0.68697997    -0.34290
N12         N  0.32475129  0.00496318  0.66185924    -0.28550
C13         C  0.36042082  0.00777368  0.66820104    -0.04650
C14         C  0.36487915  0.00414705  0.69878576     0.07570
C15         C  0.33016858  0.99916840  0.70991738     0.01370
H16         H  0.38155509  0.01094012  0.65166321     0.09020
H17         H  0.32256111  0.99517198  0.73302594     0.08100
N18         N  0.26886899  0.50267952  0.58152850    -0.35740
N19         N  0.23303244  0.50030528  0.58129113    -0.27920
C20         C  0.22129789  0.49897284  0.55281118    -0.03160
C21         C  0.25118195  0.50057928  0.53428871     0.05450
C22         C  0.28087666  0.50288188  0.55321820     0.03540
H23         H  0.19309151  0.49701981  0.54614382     0.08650
H24         H  0.30914602  0.50465283  0.54694113     0.07480
N25         N  0.32684237  0.50210134  0.37523639    -0.26910
N26         N  0.30874407  0.49744083  0.34993317    -0.34760
C27         C  0.33236484  0.49540453  0.32733480     0.01430
C28         C  0.36704064  0.49943292  0.33887646     0.07460
C29         C  0.36260346  0.50371360  0.36933085    -0.05640
H30         H  0.32481354  0.49150262  0.30415823     0.08130
H31         H  0.38375186  0.50667997  0.38603398     0.09330
Cu32       Cu  0.25285401  0.49491620  0.34688763     0.44170
Cu33       Cu  0.30158518  0.50371496  0.41647025     0.41990
Cu34       Cu  0.20256386  0.49840312  0.41547519     0.43880
N35         N  0.19695250  0.49607576  0.34853437    -0.34290
N36         N  0.17835535  0.49745133  0.37356340    -0.28550
C37         C  0.14282188  0.49808341  0.36686478    -0.04650
C38         C  0.13860491  0.49697226  0.33595026     0.07570
C39         C  0.17389342  0.49583951  0.32524819     0.01370
H40         H  0.12178498  0.49925472  0.38351683     0.09020
H41         H  0.18287794  0.49484868  0.30239269     0.08100
N42         N  0.23379532  0.49965469  0.45414498    -0.35740
N43         N  0.26965288  0.50171086  0.45448028    -0.27920
C44         C  0.28130758  0.50214332  0.48298789    -0.03160
C45         C  0.25137948  0.50032806  0.50144259     0.05450
C46         C  0.22171657  0.49875350  0.48244140     0.03540
H47         H  0.30950355  0.50377016  0.48971949     0.08650
H48         H  0.19341842  0.49722972  0.48865995     0.07480
C49         C  0.00000369  0.49646483  0.26705640    -0.02100
C50         C  0.50094327  0.49924994  0.76761701    -0.02100
N51         N  0.00228461  0.17385161  0.16091517    -0.26910
N52         N  0.99677782  0.19165015  0.18601774    -0.34760
C53         C  0.99505441  0.16781080  0.20881520     0.01430
C54         C  0.00037398  0.13352363  0.19753781     0.07460
C55         C  0.00489738  0.13830358  0.16713939    -0.05640
H56         H  0.99073258  0.17495899  0.23192612     0.08130
H57         H  0.00888773  0.11740487  0.15066528     0.09330
Cu58       Cu  0.99368360  0.24765949  0.18829190     0.44170
Cu59       Cu  0.00390575  0.19835515  0.11914365     0.41990
Cu60       Cu  0.00155075  0.29645854  0.11832682     0.43880
N61         N  0.99636756  0.30378258  0.18500921    -0.34290
N62         N  0.99979975  0.32165216  0.15953189    -0.28550
C63         C  0.00188097  0.35743866  0.16517511    -0.04650
C64         C  0.99951977  0.36252742  0.19581299     0.07570
C65         C  0.99608111  0.32769470  0.20754325     0.01370
H66         H  0.00556067  0.37792413  0.14808087     0.09020
H67         H  0.99340940  0.32003570  0.23077909     0.08100
N68         N  0.00126788  0.26497389  0.08011240    -0.35740
N69         N  0.00188765  0.22914569  0.08031471    -0.27920
C70         C  0.00060030  0.21712330  0.05197526    -0.03160
C71         C  0.49924008  0.24685707  0.03310883     0.05450
C72         C  0.99973576  0.27671909  0.05168870     0.03540
H73         H  0.00063389  0.18885036  0.04563324     0.08650
H74         H  0.99877296  0.30493018  0.04510540     0.07480
N75         N  0.50231206  0.32267232  0.87371809    -0.26910
N76         N  0.50407384  0.30425952  0.84860130    -0.34760
C77         C  0.50612932  0.32747998  0.82552823     0.01430
C78         C  0.50546050  0.36270095  0.83641714     0.07460
C79         C  0.50307565  0.35832949  0.86725606    -0.05640
H80         H  0.50797143  0.31862976  0.80267316     0.08130
H81         H  0.50146562  0.37936689  0.88391244     0.09330
Cu82       Cu  0.50209796  0.24839421  0.84628341     0.44170
Cu83       Cu  0.49876078  0.29755609  0.91516123     0.41990
Cu84       Cu  0.49080569  0.19808513  0.91461878     0.43880
N85         N  0.49615528  0.19265550  0.84786072    -0.34290
N86         N  0.49080833  0.17394277  0.87273958    -0.28550
C87         C  0.48770616  0.13845583  0.86594440    -0.04650
C88         C  0.49163094  0.13482278  0.83533660     0.07570
C89         C  0.49706307  0.16973769  0.82466913     0.01370
H90         H  0.48432673  0.11686052  0.88218054     0.09020
H91         H  0.50158285  0.17792807  0.80172836     0.08100
N92         N  0.49424824  0.22940887  0.95309749    -0.35740
N93         N  0.49682557  0.26526553  0.95319753    -0.27920
C94         C  0.49878091  0.27685708  0.98160615    -0.03160
C95         C  0.49752139  0.24693305  0.00027441     0.05450
C96         C  0.49467062  0.21729941  0.98149174     0.03540
H97         H  0.50129863  0.30502303  0.98812022     0.08650
H98         H  0.49309787  0.18900968  0.98792791     0.07480
C99         C  0.47214403  0.03963330  0.80691537    -0.20920
C100        C  0.49959727  0.03542637  0.78529796    -0.08960
C101        C  0.02136129  0.06668271  0.77833883     0.29890
C102        C  0.01845973  0.09850625  0.79481356    -0.20920
C103        C  0.49329230  0.10099660  0.81791824    -0.08980
C104        C  0.46958165  0.07153159  0.82352065     0.29900
F105        F  0.44321418  0.07393868  0.84440105    -0.19500
H106        H  0.45311516  0.01756525  0.81153123     0.18270
H107        H  0.03607724  0.12146682  0.78935167     0.18270
F108        F  0.04407141  0.06807249  0.75462979    -0.19570
C109        C  0.00178764  0.43088215  0.77242403    -0.20920
C110        C  0.50339432  0.46456708  0.78733225    -0.08960
C111        C  0.50917463  0.46382412  0.81868176     0.29890
C112        C  0.50968382  0.43076629  0.83415789    -0.20920
C113        C  0.50597489  0.39742980  0.81916172    -0.08980
C114        C  0.00286129  0.39805897  0.78779963     0.29900
F115        F  0.00018189  0.36727772  0.77146723    -0.19500
H116        H  0.99869921  0.43003596  0.74835735     0.18270
H117        H  0.51378197  0.43154113  0.85808202     0.18270
F118        F  0.51640009  0.49426785  0.83468680    -0.19490
C119        C  0.49403139  0.46264334  0.21621636    -0.20920
C120        C  0.00128934  0.46204410  0.24724822    -0.08960
C121        C  0.00796202  0.42790658  0.26059075     0.29890
C122        C  0.00817120  0.39637565  0.24357724    -0.20920
C123        C  0.00082509  0.39713717  0.21283191    -0.08980
C124        C  0.49373264  0.43078464  0.19927953     0.29900
F125        F  0.48485479  0.43305622  0.16991896    -0.19500
H126        H  0.48700277  0.48740800  0.20485673     0.18270
H127        H  0.01378222  0.37114113  0.25487633     0.18270
F128        F  0.01299050  0.42460701  0.29051030    -0.19490
C129        C  0.02737415  0.04227820  0.22776928    -0.20920
C130        C  0.99854586  0.03236523  0.24734984    -0.08960
C131        C  0.46809587  0.05585783  0.24637009     0.29890
C132        C  0.46986360  0.08917973  0.23139306    -0.20920
C133        C  0.99989460  0.09904087  0.21422300    -0.08980
C134        C  0.02811669  0.07480599  0.21164647     0.29900
F135        F  0.05671602  0.08260089  0.19355781    -0.19500
H136        H  0.04890278  0.02459371  0.22290617     0.18270
H137        H  0.44661837  0.10659693  0.23188944     0.18270
F138        F  0.43499477  0.04630250  0.25723654    -0.19490
C139        C  0.46080215  0.02179318  0.30912522    -0.20920
C140        C  0.46540210  0.49462552  0.28712703    -0.08960
C141        C  0.43548600  0.47006472  0.28224507     0.29890
C142        C  0.40425751  0.47179110  0.29954957    -0.20920
C143        C  0.40116351  0.49765755  0.32202726    -0.08980
C144        C  0.42975625  0.02261908  0.32689621     0.29900
F145        F  0.42695833  0.04895993  0.34778742    -0.19500
H146        H  0.48163547  0.04260521  0.31242344     0.18270
H147        H  0.38199016  0.45288621  0.29503515     0.18270
F148        F  0.43423437  0.44586383  0.25954334    -0.19490
C149        C  0.06983256  0.49316813  0.27201667    -0.20920
C150        C  0.03601017  0.49623911  0.28650121    -0.08960
C151        C  0.03755033  0.49319824  0.31831670     0.29890
C152        C  0.07062133  0.49496654  0.33373511    -0.20920
C153        C  0.10382858  0.49646158  0.31865090    -0.08980
C154        C  0.10286907  0.49455152  0.28732159     0.29900
F155        F  0.13350041  0.99222690  0.27095350    -0.19500
H156        H  0.07129884  0.98608276  0.24883411     0.18270
H157        H  0.06984474  0.49307735  0.35781792     0.18270
F158        F  0.00852823  0.48316035  0.33506932    -0.19490
C159        C  0.03498819  0.98992531  0.71719488    -0.20920
C160        C  0.03572163  0.49721357  0.74815981    -0.08960
C161        C  0.07021147  0.49960421  0.76217396     0.29890
C162        C  0.10204213  0.49826074  0.74556683    -0.20920
C163        C  0.10108379  0.99345801  0.71447205    -0.08980
C164        C  0.06695212  0.98863427  0.70053630     0.29900
F165        F  0.06400422  0.98166468  0.67091057    -0.19500
H166        H  0.00985597  0.98418238  0.70551899     0.18270
H167        H  0.12751853  0.50154189  0.75738582     0.18270
F168        F  0.07321460  0.50436651  0.79213585    -0.19490
C169        C  0.40187356  0.47935101  0.74022153    -0.20920
C170        C  0.39920022  0.00302529  0.71590195    -0.08960
C171        C  0.42884986  0.02598638  0.70895136     0.29890
C172        C  0.46080838  0.02462214  0.72587428    -0.20920
C173        C  0.46500081  0.49891279  0.74910568    -0.08980
C174        C  0.43382108  0.47745946  0.75689128     0.29900
F175        F  0.43259372  0.45618802  0.78165415    -0.19500
H176        H  0.37892418  0.46220684  0.74657565     0.18270
H177        H  0.48273880  0.04353489  0.72055030     0.18270
F178        F  0.42651206  0.05072549  0.68655290    -0.19490
N179        N  0.17641125  0.49574993  0.66085228    -0.26910
N180        N  0.19443145  0.49368026  0.68631614    -0.34760
C181        C  0.17066811  0.49208477  0.70894329     0.01430
C182        C  0.13567616  0.49327437  0.69732514     0.07460
C183        C  0.14066223  0.49572917  0.66659676    -0.05640
H184        H  0.17861732  0.49038391  0.73216859     0.08130
H185        H  0.12019767  0.49816751  0.64943073     0.09330
Cu186      Cu  0.25055280  0.49486835  0.68925354     0.44170
Cu187      Cu  0.20152711  0.99871682  0.61953154     0.41990
Cu188      Cu  0.30012713  0.00534616  0.62013248     0.43880
N189        N  0.30655729  0.50003288  0.68698063    -0.34290
N190        N  0.32472487  0.50496354  0.66186012    -0.28550
C191        C  0.36039440  0.50777393  0.66820179    -0.04650
C192        C  0.36485302  0.50414524  0.69878631     0.07570
C193        C  0.33014247  0.49916540  0.70991790     0.01370
H194        H  0.38152843  0.51094192  0.65166393     0.09020
H195        H  0.32253513  0.49516753  0.73302633     0.08100
N196        N  0.26889392  0.00267497  0.58152782    -0.35740
N197        N  0.23305735  0.00030090  0.58129216    -0.27920
C198        C  0.22132054  0.99896875  0.55281291    -0.03160
C199        C  0.25120297  0.00057528  0.53428885     0.05450
C200        C  0.28089933  0.00287753  0.55321678     0.03540
H201        H  0.19311361  0.99701639  0.54614710     0.08650
H202        H  0.30916816  0.00464888  0.54693812     0.07480
N203        N  0.32684958  0.00210230  0.37523362    -0.26910
N204        N  0.30875047  0.99744065  0.34993098    -0.34760
C205        C  0.33237056  0.99540415  0.32733209     0.01430
C206        C  0.36704665  0.99943366  0.33887306     0.07460
C207        C  0.36261036  0.00371509  0.36932739    -0.05640
H208        H  0.32481862  0.99150138  0.30415574     0.08130
H209        H  0.38375918  0.00668226  0.38603006     0.09330
Cu210      Cu  0.25286029  0.99491506  0.34688829     0.44170
Cu211      Cu  0.30159419  0.00371622  0.41646771     0.41990
Cu212      Cu  0.20257230  0.99840330  0.41547799     0.43880
N213        N  0.19695897  0.99607517  0.34853707    -0.34290
N214        N  0.17836217  0.99745131  0.37356629    -0.28550
C215        C  0.14282854  0.99808378  0.36686768    -0.04650
C216        C  0.13861139  0.99697238  0.33595308     0.07570
C217        C  0.17389980  0.99583895  0.32525104     0.01370
H218        H  0.12179157  0.99925557  0.38351967     0.09020
H219        H  0.18288438  0.99484765  0.30239561     0.08100
N220        N  0.23380779  0.99965403  0.45414617    -0.35740
N221        N  0.26966537  0.00171058  0.45447918    -0.27920
C222        C  0.28132311  0.00214185  0.48298594    -0.03160
C223        C  0.25139707  0.00032543  0.50144268     0.05450
C224        C  0.22173211  0.99875145  0.48244350     0.03540
H225        H  0.30951979  0.00376862  0.48971556     0.08650
H226        H  0.19343465  0.99722703  0.48866406     0.07480
C227        C  0.00001188  0.99646508  0.26705639    -0.02100
C228        C  0.50096841  0.99925052  0.76761756    -0.02100
N229        N  0.00228147  0.67385179  0.16091548    -0.26910
N230        N  0.99677460  0.69165040  0.18601800    -0.34760
C231        C  0.99504977  0.66781097  0.20881536     0.01430
C232        C  0.00036844  0.63352362  0.19753798     0.07460
C233        C  0.00489287  0.63830361  0.16713965    -0.05640
H234        H  0.99072773  0.67495923  0.23192624     0.08130
H235        H  0.00888307  0.61740486  0.15066556     0.09330
Cu236      Cu  0.99368238  0.74765993  0.18829228     0.44170
Cu237      Cu  0.00390452  0.69835539  0.11914395     0.41990
Cu238      Cu  0.00155088  0.79645860  0.11832700     0.43880
N239        N  0.99636870  0.80378298  0.18500946    -0.34290
N240        N  0.99980129  0.82165232  0.15953205    -0.28550
C241        C  0.00188444  0.85743877  0.16517516    -0.04650
C242        C  0.99952416  0.86252779  0.19581304     0.07570
C243        C  0.99608393  0.82769525  0.20754345     0.01370
H244        H  0.00556495  0.87792399  0.14808082     0.09020
H245        H  0.99341239  0.82003651  0.23077936     0.08100
N246        N  0.00126789  0.76497408  0.08011254    -0.35740
N247        N  0.00188734  0.72914587  0.08031486    -0.27920
C248        C  0.00060004  0.71712351  0.05197540    -0.03160
C249        C  0.49924018  0.74685730  0.03310895     0.05450
C250        C  0.99973605  0.77671931  0.05168884     0.03540
H251        H  0.00063332  0.68885056  0.04563336     0.08650
H252        H  0.99877348  0.80493043  0.04510555     0.07480
N253        N  0.50231641  0.82267219  0.87371799    -0.26910
N254        N  0.50407656  0.80425906  0.84860127    -0.34760
C255        C  0.50613611  0.82747926  0.82552821     0.01430
C256        C  0.50547208  0.86270049  0.83641704     0.07460
C257        C  0.50308528  0.85832936  0.86725592    -0.05640
H258        H  0.50797776  0.81862860  0.80267324     0.08130
H259        H  0.50147796  0.87936706  0.88391228     0.09330
Cu260      Cu  0.50209472  0.74839385  0.84628352     0.44170
Cu261      Cu  0.49876166  0.79755626  0.91516116     0.41990
Cu262      Cu  0.49080336  0.69808514  0.91461903     0.43880
N263        N  0.49614775  0.69265553  0.84786072    -0.34290
N264        N  0.49080143  0.67394287  0.87273969    -0.28550
C265        C  0.48769572  0.63845619  0.86594427    -0.04650
C266        C  0.49161741  0.63482325  0.83533615     0.07570
C267        C  0.49705156  0.66973796  0.82466880     0.01370
H268        H  0.48431581  0.61686088  0.88218036     0.09020
H269        H  0.50156995  0.67792835  0.80172786     0.08100
N270        N  0.49424760  0.72940909  0.95309759    -0.35740
N271        N  0.49682558  0.76526573  0.95319757    -0.27920
C272        C  0.49878134  0.77685729  0.98160618    -0.03160
C273        C  0.49752143  0.74693330  0.00027450     0.05450
C274        C  0.49466999  0.71729967  0.98149186     0.03540
H275        H  0.50129963  0.80502322  0.98812021     0.08650
H276        H  0.49309665  0.68900998  0.98792807     0.07480
C277        C  0.47212206  0.53963491  0.80691519    -0.20920
C278        C  0.49957351  0.53542656  0.78529649    -0.08960
C279        C  0.02133769  0.56668219  0.77833556     0.29890
C280        C  0.01843933  0.59850583  0.79481058    -0.20920
C281        C  0.49327464  0.60099719  0.81791717    -0.08980
C282        C  0.46956287  0.57153337  0.82352082     0.29900
F283        F  0.44319763  0.57394171  0.84440302    -0.19500
H284        H  0.45309271  0.51756763  0.81153218     0.18270
H285        H  0.03605735  0.62146559  0.78934748     0.18270
F286        F  0.04404504  0.56807107  0.75462468    -0.19570
C287        C  0.00181310  0.93088253  0.77242363    -0.20920
C288        C  0.50341921  0.96456719  0.78733225    -0.08960
C289        C  0.50919724  0.96382364  0.81868200     0.29890
C290        C  0.50970270  0.93076562  0.83415805    -0.20920
C291        C  0.50599245  0.89742943  0.81916158    -0.08980
C292        C  0.00288303  0.89805907  0.78779919     0.29900
F293        F  0.00020386  0.86727813  0.77146641    -0.19500
H294        H  0.99872698  0.93003680  0.74835674     0.18270
H295        H  0.51379840  0.93154009  0.85808246     0.18270
F296        F  0.51642331  0.99426692  0.83468747    -0.19490
C297        C  0.49404029  0.96264405  0.21621621    -0.20920
C298        C  0.00129825  0.96204457  0.24724808    -0.08960
C299        C  0.00797061  0.92790693  0.26059050     0.29890
C300        C  0.00817860  0.89637594  0.24357700    -0.20920
C301        C  0.00083163  0.89713760  0.21283181    -0.08980
C302        C  0.49374021  0.93078530  0.19927943     0.29900
F303        F  0.48486175  0.93305709  0.16991899    -0.19500
H304        H  0.48701227  0.98740890  0.20485660     0.18270
H305        H  0.01378908  0.87114124  0.25487602     0.18270
F306        F  0.01299942  0.92460723  0.29051001    -0.19490
C307        C  0.02736497  0.54227665  0.22776797    -0.20920
C308        C  0.99853787  0.53236489  0.24734979    -0.08960
C309        C  0.46808911  0.55585921  0.24637157     0.29890
C310        C  0.46985771  0.58918111  0.23139452    -0.20920
C311        C  0.99988809  0.59904077  0.21422315    -0.08980
C312        C  0.02810866  0.57480424  0.21164529     0.29900
F313        F  0.05670726  0.58259764  0.19355548    -0.19500
H314        H  0.04889391  0.52458890  0.22290346     0.18270
H315        H  0.44661336  0.60659968  0.23189199     0.18270
F316        F  0.43498834  0.54630554  0.25723954    -0.19490
C317        C  0.46079545  0.52179285  0.30912664    -0.20920
C318        C  0.46540969  0.99462546  0.28712615    -0.08960
C319        C  0.43549363  0.97006481  0.28224333     0.29890
C320        C  0.40426419  0.97179181  0.29954660    -0.20920
C321        C  0.40116940  0.99765863  0.32202388    -0.08980
C322        C  0.42975044  0.52261813  0.32689889     0.29900
F323        F  0.42695337  0.54895856  0.34779056    -0.19500
H324        H  0.48162883  0.54260491  0.31242443     0.18270
H325        H  0.38199693  0.95288697  0.29503173     0.18270
F326        F  0.43424300  0.94586355  0.25954184    -0.19490
C327        C  0.06984045  0.99316882  0.27201814    -0.20920
C328        C  0.03601767  0.99623960  0.28650216    -0.08960
C329        C  0.03755694  0.99319868  0.31831771     0.29890
C330        C  0.07062760  0.99496676  0.33373684    -0.20920
C331        C  0.10383528  0.99646200  0.31865324    -0.08980
C332        C  0.10287650  0.99455247  0.28732386     0.29900
F333        F  0.13349264  0.49222502  0.27095089    -0.19500
H334        H  0.07129017  0.48608186  0.24883142     0.18270
H335        H  0.06985054  0.99307738  0.35781960     0.18270
F336        F  0.00853420  0.98316117  0.33506974    -0.19490
C337        C  0.03496237  0.48992166  0.71719438    -0.20920
C338        C  0.03574709  0.99721533  0.74816061    -0.08960
C339        C  0.07023677  0.99960506  0.76217506     0.29890
C340        C  0.10206766  0.99826210  0.74556807    -0.20920
C341        C  0.10105789  0.49345498  0.71447102    -0.08980
C342        C  0.06692619  0.48862977  0.70053568     0.29900
F343        F  0.06397835  0.48165774  0.67091032    -0.19500
H344        H  0.00982997  0.48417793  0.70551897     0.18270
H345        H  0.12754391  0.00154208  0.75738743     0.18270
F346        F  0.07323954  0.00436567  0.79213714    -0.19490
C347        C  0.40189938  0.97935133  0.74022037    -0.20920
C348        C  0.39917435  0.50302377  0.71590230    -0.08960
C349        C  0.42882433  0.52598399  0.70895061     0.29890
C350        C  0.46078305  0.52462013  0.72587329    -0.20920
C351        C  0.46502627  0.99891352  0.74910573    -0.08980
C352        C  0.43384669  0.97745934  0.75689031     0.29900
F353        F  0.43261908  0.95618678  0.78165252    -0.19500
H354        H  0.37895008  0.96220660  0.74657370     0.18270
H355        H  0.48271374  0.54353216  0.72054835     0.18270
F356        F  0.42648680  0.55072188  0.68655122    -0.19490
N357        N  0.67643764  0.99575015  0.66085369    -0.26910
N358        N  0.69445775  0.99368256  0.68631767    -0.34760
C359        C  0.67069430  0.99208873  0.70894480     0.01430
C360        C  0.63570233  0.99327724  0.69732641     0.07460
C361        C  0.64068863  0.99572968  0.66659792    -0.05640
H362        H  0.67864347  0.99038962  0.73217019     0.08130
H363        H  0.62022435  0.99816630  0.64943151     0.09330
Cu364      Cu  0.75057913  0.99487068  0.68925403     0.44170
Cu365      Cu  0.70150024  0.49871978  0.61952974     0.41990
Cu366      Cu  0.80010018  0.50534962  0.62013394     0.43880
N367        N  0.80658354  0.00003458  0.68697996    -0.34290
N368        N  0.82475128  0.00496318  0.66185923    -0.28550
C369        C  0.86042082  0.00777368  0.66820103    -0.04650
C370        C  0.86487915  0.00414705  0.69878575     0.07570
C371        C  0.83016857  0.99916840  0.70991737     0.01370
H372        H  0.88155509  0.01094012  0.65166321     0.09020
H373        H  0.82256111  0.99517197  0.73302593     0.08100
N374        N  0.76886900  0.50267952  0.58152850    -0.35740
N375        N  0.73303244  0.50030528  0.58129113    -0.27920
C376        C  0.72129789  0.49897284  0.55281118    -0.03160
C377        C  0.75118195  0.50057928  0.53428871     0.05450
C378        C  0.78087666  0.50288188  0.55321820     0.03540
H379        H  0.69309151  0.49701981  0.54614382     0.08650
H380        H  0.80914602  0.50465283  0.54694113     0.07480
N381        N  0.82684237  0.50210134  0.37523639    -0.26910
N382        N  0.80874408  0.49744083  0.34993316    -0.34760
C383        C  0.83236485  0.49540453  0.32733480     0.01430
C384        C  0.86704065  0.49943291  0.33887646     0.07460
C385        C  0.86260347  0.50371359  0.36933085    -0.05640
H386        H  0.82481354  0.49150262  0.30415823     0.08130
H387        H  0.88375186  0.50667996  0.38603398     0.09330
Cu388      Cu  0.75285401  0.49491620  0.34688763     0.44170
Cu389      Cu  0.80158518  0.50371495  0.41647025     0.41990
Cu390      Cu  0.70256386  0.49840312  0.41547519     0.43880
N391        N  0.69695250  0.49607577  0.34853437    -0.34290
N392        N  0.67835535  0.49745132  0.37356340    -0.28550
C393        C  0.64282188  0.49808340  0.36686478    -0.04650
C394        C  0.63860491  0.49697226  0.33595026     0.07570
C395        C  0.67389342  0.49583951  0.32524819     0.01370
H396        H  0.62178498  0.49925470  0.38351684     0.09020
H397        H  0.68287794  0.49484870  0.30239269     0.08100
N398        N  0.73379533  0.49965468  0.45414498    -0.35740
N399        N  0.76965289  0.50171086  0.45448028    -0.27920
C400        C  0.78130758  0.50214332  0.48298789    -0.03160
C401        C  0.75137949  0.50032806  0.50144259     0.05450
C402        C  0.72171658  0.49875349  0.48244140     0.03540
H403        H  0.80950355  0.50377016  0.48971949     0.08650
H404        H  0.69341843  0.49722971  0.48865995     0.07480
C405        C  0.50000369  0.49646484  0.26705641    -0.02100
C406        C  0.00094327  0.49924994  0.76761701    -0.02100
N407        N  0.50228460  0.17385162  0.16091517    -0.26910
N408        N  0.49677781  0.19165016  0.18601774    -0.34760
C409        C  0.49505440  0.16781080  0.20881519     0.01430
C410        C  0.50037398  0.13352364  0.19753780     0.07460
C411        C  0.50489737  0.13830359  0.16713938    -0.05640
H412        H  0.49073257  0.17495900  0.23192612     0.08130
H413        H  0.50888773  0.11740489  0.15066528     0.09330
Cu414      Cu  0.49368359  0.24765950  0.18829190     0.44170
Cu415      Cu  0.50390575  0.19835517  0.11914365     0.41990
Cu416      Cu  0.50155074  0.29645856  0.11832681     0.43880
N417        N  0.49636755  0.30378259  0.18500921    -0.34290
N418        N  0.49979974  0.32165217  0.15953188    -0.28550
C419        C  0.50188096  0.35743867  0.16517511    -0.04650
C420        C  0.49951976  0.36252743  0.19581299     0.07570
C421        C  0.49608110  0.32769471  0.20754325     0.01370
H422        H  0.50556067  0.37792414  0.14808087     0.09020
H423        H  0.49340939  0.32003571  0.23077909     0.08100
N424        N  0.50126787  0.26497390  0.08011240    -0.35740
N425        N  0.50188764  0.22914570  0.08031471    -0.27920
C426        C  0.50060029  0.21712332  0.05197526    -0.03160
C427        C  0.99924008  0.24685706  0.03310883     0.05450
C428        C  0.49973576  0.27671910  0.05168870     0.03540
H429        H  0.50063388  0.18885037  0.04563323     0.08650
H430        H  0.49877295  0.30493019  0.04510540     0.07480
N431        N  0.00231205  0.32267232  0.87371810    -0.26910
N432        N  0.00407383  0.30425952  0.84860130    -0.34760
C433        C  0.00612931  0.32747998  0.82552823     0.01430
C434        C  0.00546049  0.36270095  0.83641714     0.07460
C435        C  0.00307565  0.35832948  0.86725607    -0.05640
H436        H  0.00797142  0.31862975  0.80267316     0.08130
H437        H  0.00146562  0.37936689  0.88391244     0.09330
Cu438      Cu  0.00209795  0.24839421  0.84628341     0.44170
Cu439      Cu  0.99876078  0.29755608  0.91516123     0.41990
Cu440      Cu  0.99080568  0.19808513  0.91461878     0.43880
N441        N  0.99615528  0.19265550  0.84786072    -0.34290
N442        N  0.99080832  0.17394277  0.87273958    -0.28550
C443        C  0.98770615  0.13845582  0.86594439    -0.04650
C444        C  0.99163093  0.13482277  0.83533660     0.07570
C445        C  0.99706307  0.16973769  0.82466913     0.01370
H446        H  0.98432672  0.11686051  0.88218054     0.09020
H447        H  0.00158284  0.17792807  0.80172836     0.08100
N448        N  0.99424824  0.22940886  0.95309749    -0.35740
N449        N  0.99682557  0.26526552  0.95319753    -0.27920
C450        C  0.99878092  0.27685707  0.98160615    -0.03160
C451        C  0.99752139  0.24693304  0.00027441     0.05450
C452        C  0.99467062  0.21729940  0.98149174     0.03540
H453        H  0.00129863  0.30502302  0.98812022     0.08650
H454        H  0.99309787  0.18900967  0.98792791     0.07480
C455        C  0.97214402  0.03963330  0.80691536    -0.20920
C456        C  0.99959727  0.03542637  0.78529795    -0.08960
C457        C  0.52136130  0.06668271  0.77833884     0.29890
C458        C  0.51845974  0.09850625  0.79481357    -0.20920
C459        C  0.99329229  0.10099660  0.81791824    -0.08980
C460        C  0.96958164  0.07153159  0.82352064     0.29900
F461        F  0.94321416  0.07393868  0.84440104    -0.19500
H462        H  0.95311515  0.01756525  0.81153121     0.18270
H463        H  0.53607725  0.12146683  0.78935167     0.18270
F464        F  0.54407141  0.06807249  0.75462979    -0.19570
C465        C  0.50178764  0.43088215  0.77242403    -0.20920
C466        C  0.00339431  0.46456707  0.78733225    -0.08960
C467        C  0.00917463  0.46382412  0.81868176     0.29890
C468        C  0.00968382  0.43076628  0.83415789    -0.20920
C469        C  0.00597489  0.39742980  0.81916172    -0.08980
C470        C  0.50286129  0.39805897  0.78779963     0.29900
F471        F  0.50018189  0.36727772  0.77146723    -0.19500
H472        H  0.49869921  0.43003596  0.74835734     0.18270
H473        H  0.01378196  0.43154112  0.85808202     0.18270
F474        F  0.01640009  0.49426784  0.83468680    -0.19490
C475        C  0.99403138  0.46264333  0.21621636    -0.20920
C476        C  0.50128934  0.46204411  0.24724822    -0.08960
C477        C  0.50796202  0.42790658  0.26059075     0.29890
C478        C  0.50817120  0.39637565  0.24357724    -0.20920
C479        C  0.50082509  0.39713717  0.21283191    -0.08980
C480        C  0.99373264  0.43078463  0.19927953     0.29900
F481        F  0.98485478  0.43305621  0.16991896    -0.19500
H482        H  0.98700275  0.48740798  0.20485673     0.18270
H483        H  0.51378221  0.37114114  0.25487633     0.18270
F484        F  0.51299049  0.42460702  0.29051030    -0.19490
C485        C  0.52737419  0.04227814  0.22776923    -0.20920
C486        C  0.49854585  0.03236523  0.24734983    -0.08960
C487        C  0.96809586  0.05585781  0.24637008     0.29890
C488        C  0.96986359  0.08917971  0.23139305    -0.20920
C489        C  0.49989460  0.09904087  0.21422299    -0.08980
C490        C  0.52811667  0.07480599  0.21164645     0.29900
F491        F  0.55671599  0.08260087  0.19355776    -0.19500
H492        H  0.54890242  0.02459399  0.22290613     0.18270
H493        H  0.94661834  0.10659692  0.23188941     0.18270
F494        F  0.93499476  0.04630247  0.25723652    -0.19490
C495        C  0.96080215  0.02179318  0.30912522    -0.20920
C496        C  0.96540210  0.49462552  0.28712702    -0.08960
C497        C  0.93548600  0.47006472  0.28224507     0.29890
C498        C  0.90425751  0.47179109  0.29954957    -0.20920
C499        C  0.90116351  0.49765754  0.32202726    -0.08980
C500        C  0.92975624  0.02261909  0.32689621     0.29900
F501        F  0.92695832  0.04895994  0.34778741    -0.19500
H502        H  0.98163546  0.04260521  0.31242344     0.18270
H503        H  0.88199016  0.45288621  0.29503514     0.18270
F504        F  0.93423437  0.44586383  0.25954333    -0.19490
C505        C  0.56983256  0.49316812  0.27201670    -0.20920
C506        C  0.53601017  0.49623912  0.28650121    -0.08960
C507        C  0.53755033  0.49319825  0.31831671     0.29890
C508        C  0.57062133  0.49496656  0.33373511    -0.20920
C509        C  0.60382858  0.49646158  0.31865091    -0.08980
C510        C  0.60286906  0.49455150  0.28732159     0.29900
F511        F  0.63350042  0.99222697  0.27095348    -0.19500
H512        H  0.57129888  0.98608279  0.24883431     0.18270
H513        H  0.56984474  0.49307738  0.35781794     0.18270
F514        F  0.50852822  0.48316039  0.33506933    -0.19490
C515        C  0.53498819  0.98992530  0.71719488    -0.20920
C516        C  0.53572163  0.49721357  0.74815980    -0.08960
C517        C  0.57021147  0.49960421  0.76217396     0.29890
C518        C  0.60204213  0.49826074  0.74556682    -0.20920
C519        C  0.60108379  0.99345801  0.71447205    -0.08980
C520        C  0.56695212  0.98863427  0.70053630     0.29900
F521        F  0.56400422  0.98166467  0.67091057    -0.19500
H522        H  0.50985597  0.98418237  0.70551900     0.18270
H523        H  0.62751853  0.50154189  0.75738582     0.18270
F524        F  0.57321460  0.50436651  0.79213584    -0.19490
C525        C  0.90187356  0.47935101  0.74022153    -0.20920
C526        C  0.89920022  0.00302529  0.71590194    -0.08960
C527        C  0.92884986  0.02598638  0.70895136     0.29890
C528        C  0.96080837  0.02462214  0.72587427    -0.20920
C529        C  0.96500081  0.49891279  0.74910568    -0.08980
C530        C  0.93382108  0.47745946  0.75689129     0.29900
F531        F  0.93259372  0.45618802  0.78165415    -0.19500
H532        H  0.87892418  0.46220684  0.74657565     0.18270
H533        H  0.98273880  0.04353489  0.72055029     0.18270
F534        F  0.92651206  0.05072549  0.68655290    -0.19490
N535        N  0.67641125  0.49574993  0.66085228    -0.26910
N536        N  0.69443145  0.49368026  0.68631614    -0.34760
C537        C  0.67066811  0.49208477  0.70894329     0.01430
C538        C  0.63567616  0.49327437  0.69732514     0.07460
C539        C  0.64066223  0.49572917  0.66659675    -0.05640
H540        H  0.67861732  0.49038391  0.73216859     0.08130
H541        H  0.62019767  0.49816751  0.64943073     0.09330
Cu542      Cu  0.75055280  0.49486835  0.68925354     0.44170
Cu543      Cu  0.70152710  0.99871682  0.61953154     0.41990
Cu544      Cu  0.80012712  0.00534616  0.62013248     0.43880
N545        N  0.80655729  0.50003288  0.68698063    -0.34290
N546        N  0.82472487  0.50496354  0.66186012    -0.28550
C547        C  0.86039440  0.50777393  0.66820179    -0.04650
C548        C  0.86485302  0.50414524  0.69878631     0.07570
C549        C  0.83014247  0.49916540  0.70991790     0.01370
H550        H  0.88152843  0.51094192  0.65166393     0.09020
H551        H  0.82253513  0.49516753  0.73302633     0.08100
N552        N  0.76889392  0.00267498  0.58152781    -0.35740
N553        N  0.73305734  0.00030090  0.58129215    -0.27920
C554        C  0.72132053  0.99896876  0.55281290    -0.03160
C555        C  0.75120296  0.00057528  0.53428884     0.05450
C556        C  0.78089932  0.00287753  0.55321677     0.03540
H557        H  0.69311360  0.99701640  0.54614710     0.08650
H558        H  0.80916815  0.00464888  0.54693812     0.07480
N559        N  0.82684958  0.00210230  0.37523361    -0.26910
N560        N  0.80875046  0.99744065  0.34993097    -0.34760
C561        C  0.83237055  0.99540415  0.32733209     0.01430
C562        C  0.86704664  0.99943366  0.33887306     0.07460
C563        C  0.86261035  0.00371509  0.36932739    -0.05640
H564        H  0.82481862  0.99150138  0.30415574     0.08130
H565        H  0.88375917  0.00668227  0.38603006     0.09330
Cu566      Cu  0.75286028  0.99491505  0.34688829     0.44170
Cu567      Cu  0.80159418  0.00371623  0.41646770     0.41990
Cu568      Cu  0.70257229  0.99840331  0.41547798     0.43880
N569        N  0.69695897  0.99607517  0.34853707    -0.34290
N570        N  0.67836216  0.99745132  0.37356628    -0.28550
C571        C  0.64282853  0.99808380  0.36686767    -0.04650
C572        C  0.63861139  0.99697239  0.33595307     0.07570
C573        C  0.67389980  0.99583895  0.32525103     0.01370
H574        H  0.62179157  0.99925560  0.38351966     0.09020
H575        H  0.68288437  0.99484763  0.30239561     0.08100
N576        N  0.73380778  0.99965404  0.45414617    -0.35740
N577        N  0.76966536  0.00171058  0.45447918    -0.27920
C578        C  0.78132310  0.00214185  0.48298594    -0.03160
C579        C  0.75139706  0.00032544  0.50144268     0.05450
C580        C  0.72173210  0.99875146  0.48244350     0.03540
H581        H  0.80951978  0.00376862  0.48971556     0.08650
H582        H  0.69343464  0.99722704  0.48866406     0.07480
C583        C  0.50001188  0.99646508  0.26705638    -0.02100
C584        C  0.00096840  0.99925052  0.76761755    -0.02100
N585        N  0.50228145  0.67385179  0.16091548    -0.26910
N586        N  0.49677459  0.69165040  0.18601800    -0.34760
C587        C  0.49504975  0.66781097  0.20881536     0.01430
C588        C  0.50036843  0.63352362  0.19753798     0.07460
C589        C  0.50489285  0.63830361  0.16713966    -0.05640
H590        H  0.49072772  0.67495924  0.23192624     0.08130
H591        H  0.50888305  0.61740486  0.15066556     0.09330
Cu592      Cu  0.49368237  0.74765993  0.18829228     0.44170
Cu593      Cu  0.50390451  0.69835539  0.11914395     0.41990
Cu594      Cu  0.50155087  0.79645860  0.11832699     0.43880
N595        N  0.49636869  0.80378298  0.18500946    -0.34290
N596        N  0.49980127  0.82165232  0.15953205    -0.28550
C597        C  0.50188442  0.85743877  0.16517515    -0.04650
C598        C  0.49952415  0.86252779  0.19581304     0.07570
C599        C  0.49608392  0.82769526  0.20754345     0.01370
H600        H  0.50556493  0.87792399  0.14808082     0.09020
H601        H  0.49341238  0.82003652  0.23077936     0.08100
N602        N  0.50126787  0.76497407  0.08011254    -0.35740
N603        N  0.50188732  0.72914586  0.08031486    -0.27920
C604        C  0.50060003  0.71712351  0.05197540    -0.03160
C605        C  0.99924019  0.74685730  0.03310895     0.05450
C606        C  0.49973603  0.77671931  0.05168884     0.03540
H607        H  0.50063330  0.68885056  0.04563336     0.08650
H608        H  0.49877347  0.80493042  0.04510555     0.07480
N609        N  0.00231641  0.82267220  0.87371799    -0.26910
N610        N  0.00407655  0.80425907  0.84860126    -0.34760
C611        C  0.00613610  0.82747926  0.82552821     0.01430
C612        C  0.00547207  0.86270050  0.83641703     0.07460
C613        C  0.00308528  0.85832936  0.86725592    -0.05640
H614        H  0.00797774  0.81862860  0.80267324     0.08130
H615        H  0.00147796  0.87936706  0.88391227     0.09330
Cu616      Cu  0.00209471  0.74839385  0.84628352     0.44170
Cu617      Cu  0.99876166  0.79755626  0.91516116     0.41990
Cu618      Cu  0.99080337  0.69808515  0.91461903     0.43880
N619        N  0.99614775  0.69265553  0.84786072    -0.34290
N620        N  0.99080144  0.67394287  0.87273969    -0.28550
C621        C  0.98769572  0.63845619  0.86594427    -0.04650
C622        C  0.99161741  0.63482325  0.83533616     0.07570
C623        C  0.99705156  0.66973796  0.82466880     0.01370
H624        H  0.98431582  0.61686089  0.88218036     0.09020
H625        H  0.00156994  0.67792835  0.80172786     0.08100
N626        N  0.99424761  0.72940909  0.95309759    -0.35740
N627        N  0.99682559  0.76526573  0.95319757    -0.27920
C628        C  0.99878136  0.77685729  0.98160618    -0.03160
C629        C  0.99752145  0.74693330  0.00027450     0.05450
C630        C  0.99467000  0.71729968  0.98149186     0.03540
H631        H  0.00129964  0.80502322  0.98812021     0.08650
H632        H  0.99309666  0.68900998  0.98792807     0.07480
C633        C  0.97212206  0.53963491  0.80691519    -0.20920
C634        C  0.99957351  0.53542656  0.78529649    -0.08960
C635        C  0.52133769  0.56668219  0.77833556     0.29890
C636        C  0.51843933  0.59850583  0.79481057    -0.20920
C637        C  0.99327464  0.60099719  0.81791717    -0.08980
C638        C  0.96956287  0.57153337  0.82352082     0.29900
F639        F  0.94319763  0.57394171  0.84440302    -0.19500
H640        H  0.95309270  0.51756763  0.81153218     0.18270
H641        H  0.53605735  0.62146559  0.78934748     0.18270
F642        F  0.54404504  0.56807107  0.75462468    -0.19570
C643        C  0.50181310  0.93088253  0.77242363    -0.20920
C644        C  0.00341920  0.96456719  0.78733224    -0.08960
C645        C  0.00919723  0.96382364  0.81868200     0.29890
C646        C  0.00970269  0.93076562  0.83415805    -0.20920
C647        C  0.00599244  0.89742943  0.81916158    -0.08980
C648        C  0.50288302  0.89805907  0.78779919     0.29900
F649        F  0.50020385  0.86727813  0.77146641    -0.19500
H650        H  0.49872697  0.93003680  0.74835675     0.18270
H651        H  0.01379838  0.93154009  0.85808245     0.18270
F652        F  0.01642329  0.99426692  0.83468747    -0.19490
C653        C  0.99404031  0.96264405  0.21621622    -0.20920
C654        C  0.50129825  0.96204458  0.24724807    -0.08960
C655        C  0.50797061  0.92790693  0.26059050     0.29890
C656        C  0.50817860  0.89637595  0.24357700    -0.20920
C657        C  0.50083163  0.89713760  0.21283181    -0.08980
C658        C  0.99374023  0.93078530  0.19927944     0.29900
F659        F  0.98486178  0.93305709  0.16991900    -0.19500
H660        H  0.98701230  0.98740890  0.20485660     0.18270
H661        H  0.51378908  0.87114125  0.25487601     0.18270
F662        F  0.51299943  0.92460724  0.29051000    -0.19490
C663        C  0.52736495  0.54227671  0.22776800    -0.20920
C664        C  0.49853787  0.53236490  0.24734980    -0.08960
C665        C  0.96808912  0.55585922  0.24637158     0.29890
C666        C  0.96985773  0.58918112  0.23139454    -0.20920
C667        C  0.49988808  0.59904078  0.21422315    -0.08980
C668        C  0.52810866  0.57480426  0.21164531     0.29900
F669        F  0.55670727  0.58259768  0.19355552    -0.19500
H670        H  0.54889413  0.52458877  0.22290350     0.18270
H671        H  0.94661341  0.60659970  0.23189202     0.18270
F672        F  0.93498835  0.54630557  0.25723956    -0.19490
C673        C  0.96079545  0.52179283  0.30912665    -0.20920
C674        C  0.96540969  0.99462546  0.28712616    -0.08960
C675        C  0.93549363  0.97006480  0.28224333     0.29890
C676        C  0.90426419  0.97179181  0.29954660    -0.20920
C677        C  0.90116940  0.99765863  0.32202388    -0.08980
C678        C  0.92975045  0.52261812  0.32689890     0.29900
F679        F  0.92695338  0.54895854  0.34779057    -0.19500
H680        H  0.98162884  0.54260489  0.31242444     0.18270
H681        H  0.88199694  0.95288696  0.29503173     0.18270
F682        F  0.93424301  0.94586354  0.25954186    -0.19490
C683        C  0.56984045  0.99316884  0.27201809    -0.20920
C684        C  0.53601767  0.99623960  0.28650215    -0.08960
C685        C  0.53755694  0.99319867  0.31831769     0.29890
C686        C  0.57062760  0.99496676  0.33373683    -0.20920
C687        C  0.60383528  0.99646201  0.31865322    -0.08980
C688        C  0.60287651  0.99455251  0.28732385     0.29900
F689        F  0.63349263  0.49222498  0.27095090    -0.19500
H690        H  0.57129014  0.48608184  0.24883130     0.18270
H691        H  0.56985054  0.99307735  0.35781957     0.18270
F692        F  0.50853420  0.98316114  0.33506973    -0.19490
C693        C  0.53496237  0.48992166  0.71719438    -0.20920
C694        C  0.53574710  0.99721533  0.74816061    -0.08960
C695        C  0.57023678  0.99960506  0.76217506     0.29890
C696        C  0.60206766  0.99826210  0.74556808    -0.20920
C697        C  0.60105789  0.49345498  0.71447102    -0.08980
C698        C  0.56692619  0.48862977  0.70053568     0.29900
F699        F  0.56397835  0.48165774  0.67091032    -0.19500
H700        H  0.50982997  0.48417793  0.70551896     0.18270
H701        H  0.62754392  0.00154209  0.75738743     0.18270
F702        F  0.57323955  0.00436568  0.79213715    -0.19490
C703        C  0.90189938  0.97935133  0.74022035    -0.20920
C704        C  0.89917435  0.50302377  0.71590230    -0.08960
C705        C  0.92882433  0.52598399  0.70895061     0.29890
C706        C  0.96078305  0.52462013  0.72587329    -0.20920
C707        C  0.96502626  0.99891352  0.74910572    -0.08980
C708        C  0.93384669  0.97745933  0.75689030     0.29900
F709        F  0.93261908  0.95618677  0.78165251    -0.19500
H710        H  0.87895008  0.96220659  0.74657368     0.18270
H711        H  0.98271374  0.54353216  0.72054836     0.18270
F712        F  0.92648681  0.55072188  0.68655122    -0.19490
loop_ 
_geom_bond_atom_site_label_1 
_geom_bond_atom_site_label_2 
_geom_bond_distance 
_geom_bond_site_symmetry_2 
_ccdc_geom_bond_type 
N1            N2   1.320       .  A
N1            C5   1.345       .  A
N1         Cu187   2.074       .  S
N2            C3   1.343       .  A
N2           Cu8   2.073       .  S
C3            C4   1.391       .  A
C3            H6   1.081       .  S
C4            C5   1.391       .  A
C4          C163   1.494       .  S
C5            H7   1.080       .  S
Cu8          N11   2.073   1_565  S
Cu9          N19   2.075       .  S
Cu9         N179   2.074       .  S
Cu10         N18   2.073       .  S
Cu10        N190   2.073       .  S
N11          N12   1.322       .  A
N11          C15   1.343   1_545  A
N12          C13   1.346       .  A
N12        Cu188   2.073       .  S
C13          C14   1.385       .  A
C13          H16   1.082       .  S
C14          C15   1.384   1_545  A
C14         C170   1.478       .  S
C15          H17   1.082       .  S
N18          N19   1.323       .  A
N18          C22   1.345       .  A
N19          C20   1.345       .  A
C20          C21   1.383       .  A
C20          H23   1.082       .  S
C21          C22   1.383       .  A
C21          C45   1.471       .  S
C22          H24   1.082       .  S
N25          N26   1.322       .  A
N25          C29   1.347       .  A
N25         Cu33   2.074       .  S
N26          C27   1.342       .  A
N26         Cu32   2.065       .  S
C27          C28   1.382       .  A
C27          H30   1.082       .  S
C28          C29   1.384       .  A
C28         C143   1.474       .  S
C29          H31   1.082       .  S
Cu32         N35   2.065       .  S
Cu33         N43   2.075       .  S
Cu34         N36   2.074       .  S
Cu34         N42   2.075       .  S
N35          N36   1.319       .  A
N35          C39   1.342       .  A
N36          C37   1.344       .  A
C37          C38   1.393       .  A
C37          H40   1.081       .  S
C38          C39   1.391       .  A
C38         C153   1.495       .  S
C39          H41   1.078       .  S
N42          N43   1.323       .  A
N42          C46   1.345       .  A
N43          C44   1.345       .  A
C44          C45   1.383       .  A
C44          H47   1.082       .  S
C45          C46   1.383       .  A
C46          H48   1.082       .  S
C49         C120   1.553       .  S
C49         C150   1.584       .  S
C49         C308   1.590   1_455  S
C49         C496   1.565   1_455  S
C50         C110   1.556       .  S
C50         C173   1.560       .  S
C50         C278   1.556       .  S
C50         C516   1.558       .  S
N51          N52   1.323   1_455  A
N51          C55   1.345       .  A
N51         Cu59   2.075       .  S
N52          C53   1.345       .  A
N52         Cu58   2.075       .  S
C53          C54   1.382   1_655  A
C53          H56   1.082       .  S
C54          C55   1.382       .  A
C54         C133   1.472   1_455  S
C55          H57   1.082       .  S
Cu58         N61   2.075       .  S
Cu59         N69   2.075       .  S
Cu60         N62   2.071   1_455  S
Cu60         N68   2.071       .  S
N61          N62   1.320       .  A
N61          C65   1.343       .  A
N62          C63   1.345   1_655  A
C63          C64   1.389   1_455  A
C63          H66   1.080       .  S
C64          C65   1.389       .  A
C64         C123   1.489   1_655  S
C65          H67   1.081       .  S
N68          N69   1.322       .  A
N68          C72   1.344   1_455  A
N69          C70   1.346       .  A
C70         C427   1.384   1_455  A
C70          H73   1.082       .  S
C71         C426   1.384       .  A
C71         C428   1.382       .  A
C71          C95   1.471       .  S
C72         C427   1.382       .  A
C72          H74   1.082       .  S
N75          N76   1.319       .  A
N75          C79   1.345       .  A
N75         Cu83   2.074       .  S
N76          C77   1.341       .  A
N76         Cu82   2.063       .  S
C77          C78   1.390       .  A
C77          H80   1.078       .  S
C78          C79   1.392       .  A
C78         C113   1.493       .  S
C79          H81   1.081       .  S
Cu82         N85   2.063       .  S
Cu83         N93   2.075       .  S
Cu84         N86   2.079       .  S
Cu84         N92   2.079       .  S
N85          N86   1.321       .  A
N85          C89   1.342       .  A
N86          C87   1.347       .  A
C87          C88   1.386       .  A
C87          H90   1.082       .  S
C88          C89   1.382       .  A
C88         C103   1.476       .  S
C89          H91   1.082       .  S
N92          N93   1.324       .  A
N92          C96   1.346       .  A
N93          C94   1.344       .  A
C94          C95   1.382   1_556  A
C94          H97   1.082       .  S
C95          C96   1.383   1_554  A
C96          H98   1.082       .  S
C99         C100   1.416       .  A
C99         C104   1.399       .  A
C99         H106   1.082       .  S
C100        C457   1.423       .  A
C100        C228   1.556   1_545  S
C101        C102   1.395       .  A
C101        C456   1.423   1_455  A
C101        F108   1.356       .  S
C102        C459   1.398   1_455  A
C102        H107   1.083       .  S
C103        C104   1.401       .  A
C103        C458   1.398       .  A
C104        F105   1.357       .  S
C109        C114   1.392       .  A
C109        C466   1.412       .  A
C109        H116   1.083   1_455  S
C110        C111   1.419       .  A
C110        C465   1.412       .  A
C111        C112   1.401       .  A
C111        F118   1.355       .  S
C112        C113   1.407       .  A
C112        H117   1.081       .  S
C113        C470   1.408       .  A
C114        C469   1.408       .  A
C114        F115   1.354       .  S
C119        C124   1.401       .  A
C119        C476   1.414       .  A
C119        H126   1.080       .  S
C120        C121   1.418       .  A
C120        C475   1.414   1_455  A
C121        C122   1.393       .  A
C121        F128   1.357       .  S
C122        C123   1.402       .  A
C122        H127   1.082       .  S
C123        C480   1.409   1_455  A
C124        C479   1.409       .  A
C124        F125   1.356       .  S
C129        C130   1.422   1_455  A
C129        C134   1.398       .  A
C129        H136   1.064       .  S
C130        C487   1.436       .  A
C130        C227   1.590   1_645  S
C131        C132   1.398       .  A
C131        C486   1.436       .  A
C131        F138   1.355       .  S
C132        C489   1.392       .  A
C132        H137   1.084       .  S
C133        C134   1.394   1_655  A
C133        C488   1.392       .  A
C134        F135   1.358       .  S
C139        C144   1.399       .  A
C139        C318   1.421   1_545  A
C139        H146   1.083       .  S
C140        C141   1.427       .  A
C140        C317   1.421       .  A
C140        C405   1.565       .  S
C141        C142   1.394       .  A
C141        F148   1.355       .  S
C142        C143   1.396       .  A
C142        H147   1.083       .  S
C143        C322   1.400       .  A
C144        C321   1.400   1_545  A
C144        F145   1.357       .  S
C149        C150   1.416       .  A
C149        C154   1.395       .  A
C149        H334   1.073       .  S
C150        C151   1.429       .  A
C151        C152   1.399       .  A
C151        F158   1.354       .  S
C152        C153   1.402       .  A
C152        H157   1.081       .  S
C153        C154   1.405       .  A
C154        F333   1.354       .  S
F155        C332   1.354       .  S
H156        C327   1.073       .  S
C159        C164   1.400       .  A
C159        C338   1.413       .  A
C159        H166   1.079       .  S
C160        C161   1.417       .  A
C160        C337   1.413       .  A
C160        C406   1.558       .  S
C161        C162   1.395       .  A
C161        F168   1.357       .  S
C162        C341   1.404       .  A
C162        H167   1.081       .  S
C163        C164   1.410       .  A
C163        C340   1.404       .  A
C164        F165   1.355       .  S
C169        C174   1.395       .  A
C169        C348   1.398       .  A
C169        H176   1.083       .  S
C170        C171   1.402       .  A
C170        C347   1.398   1_545  A
C171        C172   1.400       .  A
C171        F178   1.357       .  S
C172        C351   1.415   1_545  A
C172        H177   1.082       .  S
C173        C174   1.424       .  A
C173        C350   1.415       .  A
C174        F175   1.356       .  S
N179        N180   1.320       .  A
N179        C183   1.345       .  A
N180        C181   1.343       .  A
N180       Cu186   2.073       .  S
C181        C182   1.391       .  A
C181        H184   1.081       .  S
C182        C183   1.391       .  A
C182        C341   1.494       .  S
C183        H185   1.080       .  S
Cu186       N189   2.073       .  S
Cu187       N197   2.075   1_565  S
Cu188       N196   2.073       .  S
N189        N190   1.322       .  A
N189        C193   1.343       .  A
N190        C191   1.346       .  A
C191        C192   1.385       .  A
C191        H194   1.082       .  S
C192        C193   1.384       .  A
C192        C348   1.478       .  S
C193        H195   1.082       .  S
N196        N197   1.323       .  A
N196        C200   1.345       .  A
N197        C198   1.345   1_545  A
C198        C199   1.383   1_565  A
C198        H201   1.082       .  S
C199        C200   1.383       .  A
C199        C223   1.471       .  S
C200        H202   1.082       .  S
N203        N204   1.322   1_545  A
N203        C207   1.347       .  A
N203       Cu211   2.074       .  S
N204        C205   1.342       .  A
N204       Cu210   2.065       .  S
C205        C206   1.382       .  A
C205        H208   1.082       .  S
C206        C207   1.384   1_565  A
C206        C321   1.474       .  S
C207        H209   1.082       .  S
Cu210       N213   2.065       .  S
Cu211       N221   2.075       .  S
Cu212       N214   2.074       .  S
Cu212       N220   2.075       .  S
N213        N214   1.319       .  A
N213        C217   1.342       .  A
N214        C215   1.344       .  A
C215        C216   1.393       .  A
C215        H218   1.081       .  S
C216        C217   1.391       .  A
C216        C331   1.495       .  S
C217        H219   1.078       .  S
N220        N221   1.323   1_565  A
N220        C224   1.345       .  A
N221        C222   1.345       .  A
C222        C223   1.383       .  A
C222        H225   1.082       .  S
C223        C224   1.383   1_545  A
C224        H226   1.082       .  S
C227        C298   1.553       .  S
C227        C674   1.565   1_455  S
C227        C328   1.584       .  S
C228        C288   1.556       .  S
C228        C694   1.558       .  S
C228        C351   1.560       .  S
N229        N230   1.323   1_455  A
N229        C233   1.345       .  A
N229       Cu237   2.075       .  S
N230        C231   1.345       .  A
N230       Cu236   2.075       .  S
C231        C232   1.382   1_655  A
C231        H234   1.082       .  S
C232        C233   1.382       .  A
C232        C311   1.472   1_455  S
C233        H235   1.082       .  S
Cu236       N239   2.075       .  S
Cu237       N247   2.075       .  S
Cu238       N240   2.071   1_455  S
Cu238       N246   2.071       .  S
N239        N240   1.320       .  A
N239        C243   1.343       .  A
N240        C241   1.345   1_655  A
C241        C242   1.389   1_455  A
C241        H244   1.080       .  S
C242        C243   1.389       .  A
C242        C301   1.489   1_655  S
C243        H245   1.081       .  S
N246        N247   1.322       .  A
N246        C250   1.344   1_455  A
N247        C248   1.346       .  A
C248        C605   1.384   1_455  A
C248        H251   1.082       .  S
C249        C604   1.384       .  A
C249        C606   1.382       .  A
C249        C273   1.471       .  S
C250        C605   1.382       .  A
C250        H252   1.082       .  S
N253        N254   1.319       .  A
N253        C257   1.345       .  A
N253       Cu261   2.074       .  S
N254        C255   1.341       .  A
N254       Cu260   2.063       .  S
C255        C256   1.390       .  A
C255        H258   1.078       .  S
C256        C257   1.392       .  A
C256        C291   1.493       .  S
C257        H259   1.081       .  S
Cu260       N263   2.063       .  S
Cu261       N271   2.075       .  S
Cu262       N264   2.079       .  S
Cu262       N270   2.079       .  S
N263        N264   1.321       .  A
N263        C267   1.342       .  A
N264        C265   1.347       .  A
C265        C266   1.386       .  A
C265        H268   1.082       .  S
C266        C267   1.382       .  A
C266        C281   1.476       .  S
C267        H269   1.082       .  S
N270        N271   1.324       .  A
N270        C274   1.346       .  A
N271        C272   1.344       .  A
C272        C273   1.382   1_556  A
C272        H275   1.082       .  S
C273        C274   1.383   1_554  A
C274        H276   1.082       .  S
C277        C278   1.416       .  A
C277        C282   1.399       .  A
C277        H284   1.082       .  S
C278        C635   1.423       .  A
C279        C634   1.423   1_455  A
C279        C280   1.395       .  A
C279        F286   1.356       .  S
C280        C637   1.398   1_455  A
C280        H285   1.083       .  S
C281        C636   1.398       .  A
C281        C282   1.401       .  A
C282        F283   1.357       .  S
C287        C644   1.412       .  A
C287        C292   1.392       .  A
C287        H294   1.083   1_455  S
C288        C643   1.412       .  A
C288        C289   1.419       .  A
C289        C290   1.401       .  A
C289        F296   1.355       .  S
C290        C291   1.407       .  A
C290        H295   1.081       .  S
C291        C648   1.408       .  A
C292        C647   1.408       .  A
C292        F293   1.354       .  S
C297        C654   1.414       .  A
C297        C302   1.401       .  A
C297        H304   1.080       .  S
C298        C653   1.414   1_455  A
C298        C299   1.418       .  A
C299        C300   1.393       .  A
C299        F306   1.357       .  S
C300        C301   1.402       .  A
C300        H305   1.082       .  S
C301        C658   1.409   1_455  A
C302        C657   1.409       .  A
C302        F303   1.356       .  S
C307        C308   1.422   1_455  A
C307        C312   1.398       .  A
C307        H314   1.064       .  S
C308        C665   1.436       .  A
C309        C664   1.436       .  A
C309        C310   1.398       .  A
C309        F316   1.355       .  S
C310        C667   1.392       .  A
C310        H315   1.084       .  S
C311        C666   1.392       .  A
C311        C312   1.394   1_655  A
C312        F313   1.358       .  S
C317        C322   1.399       .  A
C317        H324   1.083       .  S
C318        C319   1.427       .  A
C318        C583   1.565       .  S
C319        C320   1.394       .  A
C319        F326   1.355       .  S
C320        C321   1.396       .  A
C320        H325   1.083       .  S
C322        F323   1.357       .  S
C327        C328   1.416       .  A
C327        C332   1.395       .  A
C328        C329   1.429       .  A
C329        C330   1.399       .  A
C329        F336   1.354       .  S
C330        C331   1.402       .  A
C330        H335   1.081       .  S
C331        C332   1.405       .  A
C337        C342   1.400       .  A
C337        H344   1.079       .  S
C338        C339   1.417       .  A
C338        C584   1.558       .  S
C339        C340   1.395       .  A
C339        F346   1.357   1_565  S
C340        H345   1.081   1_565  S
C341        C342   1.410       .  A
C342        F343   1.355       .  S
C347        C352   1.395       .  A
C347        H354   1.083       .  S
C348        C349   1.402       .  A
C349        C350   1.400       .  A
C349        F356   1.357       .  S
C350        H355   1.082       .  S
C351        C352   1.424       .  A
C352        F353   1.356       .  S
N357        N358   1.320       .  A
N357        C361   1.345       .  A
N357       Cu543   2.074       .  S
N358        C359   1.343       .  A
N358       Cu364   2.073       .  S
C359        C360   1.391       .  A
C359        H362   1.081       .  S
C360        C361   1.391       .  A
C360        C519   1.494       .  S
C361        H363   1.080       .  S
Cu364       N367   2.073   1_565  S
Cu365       N535   2.074       .  S
Cu365       N375   2.075       .  S
Cu366       N546   2.073       .  S
Cu366       N374   2.073       .  S
N367        N368   1.322       .  A
N367        C371   1.343   1_545  A
N368        C369   1.346       .  A
N368       Cu544   2.073       .  S
C369        C370   1.385       .  A
C369        H372   1.082       .  S
C370        C371   1.384   1_545  A
C370        C526   1.478       .  S
C371        H373   1.082       .  S
N374        N375   1.323       .  A
N374        C378   1.345       .  A
N375        C376   1.345       .  A
C376        C377   1.383       .  A
C376        H379   1.082       .  S
C377        C378   1.383       .  A
C377        C401   1.471       .  S
C378        H380   1.082       .  S
N381        N382   1.322       .  A
N381        C385   1.347       .  A
N381       Cu389   2.074       .  S
N382        C383   1.342       .  A
N382       Cu388   2.065       .  S
C383        C384   1.382       .  A
C383        H386   1.082       .  S
C384        C385   1.384       .  A
C384        C499   1.474       .  S
C385        H387   1.082       .  S
Cu388       N391   2.065       .  S
Cu389       N399   2.075       .  S
Cu390       N392   2.074       .  S
Cu390       N398   2.075       .  S
N391        N392   1.319       .  A
N391        C395   1.342       .  A
N392        C393   1.344       .  A
C393        C394   1.393       .  A
C393        H396   1.081       .  S
C394        C395   1.391       .  A
C394        C509   1.495       .  S
C395        H397   1.078       .  S
N398        N399   1.323       .  A
N398        C402   1.345       .  A
N399        C400   1.345       .  A
C400        C401   1.383       .  A
C400        H403   1.082       .  S
C401        C402   1.383       .  A
C402        H404   1.082       .  S
C405        C476   1.553       .  S
C405        C664   1.590       .  S
C405        C506   1.584       .  S
C406        C634   1.556   1_455  S
C406        C466   1.556       .  S
C406        C529   1.560   1_455  S
N407        N408   1.323       .  A
N407        C411   1.345       .  A
N407       Cu415   2.075       .  S
N408        C409   1.345       .  A
N408       Cu414   2.075       .  S
C409        C410   1.382       .  A
C409        H412   1.082       .  S
C410        C411   1.382       .  A
C410        C489   1.472       .  S
C411        H413   1.082       .  S
Cu414       N417   2.075       .  S
Cu415       N425   2.075       .  S
Cu416       N418   2.071       .  S
Cu416       N424   2.071       .  S
N417        N418   1.320       .  A
N417        C421   1.343       .  A
N418        C419   1.345       .  A
C419        C420   1.389       .  A
C419        H422   1.080       .  S
C420        C421   1.389       .  A
C420        C479   1.489       .  S
C421        H423   1.081       .  S
N424        N425   1.322       .  A
N424        C428   1.344       .  A
N425        C426   1.346       .  A
C426        H429   1.082       .  S
C427        C451   1.471       .  S
C428        H430   1.082       .  S
N431        N432   1.319       .  A
N431        C435   1.345       .  A
N431       Cu439   2.074   1_455  S
N432        C433   1.341       .  A
N432       Cu438   2.063       .  S
C433        C434   1.390       .  A
C433        H436   1.078       .  S
C434        C435   1.392       .  A
C434        C469   1.493       .  S
C435        H437   1.081       .  S
Cu438       N441   2.063   1_455  S
Cu439       N449   2.075       .  S
Cu440       N442   2.079       .  S
Cu440       N448   2.079       .  S
N441        N442   1.321       .  A
N441        C445   1.342       .  A
N442        C443   1.347       .  A
C443        C444   1.386       .  A
C443        H446   1.082       .  S
C444        C445   1.382       .  A
C444        C459   1.476       .  S
C445        H447   1.082   1_655  S
N448        N449   1.324       .  A
N448        C452   1.346       .  A
N449        C450   1.344       .  A
C450        C451   1.382   1_556  A
C450        H453   1.082   1_655  S
C451        C452   1.383   1_554  A
C452        H454   1.082       .  S
C455        C456   1.416       .  A
C455        C460   1.399       .  A
C455        H462   1.082       .  S
C456        C584   1.556   1_645  S
C457        C458   1.395       .  A
C457        F464   1.356       .  S
C458        H463   1.083       .  S
C459        C460   1.401       .  A
C460        F461   1.357       .  S
C465        C470   1.392       .  A
C465        H472   1.083       .  S
C466        C467   1.419       .  A
C467        C468   1.401       .  A
C467        F474   1.355       .  S
C468        C469   1.407       .  A
C468        H473   1.081       .  S
C470        F471   1.354       .  S
C475        C480   1.401       .  A
C475        H482   1.080       .  S
C476        C477   1.418       .  A
C477        C478   1.393       .  A
C477        F484   1.357       .  S
C478        C479   1.402       .  A
C478        H483   1.082       .  S
C480        F481   1.356       .  S
C485        C486   1.422       .  A
C485        C490   1.398       .  A
C485        H492   1.064       .  S
C486        C583   1.590   1_545  S
C487        C488   1.398       .  A
C487        F494   1.355       .  S
C488        H493   1.084       .  S
C489        C490   1.394       .  A
C490        F491   1.358       .  S
C495        C674   1.421   1_545  A
C495        C500   1.399       .  A
C495        H502   1.083       .  S
C496        C673   1.421       .  A
C496        C497   1.427       .  A
C497        C498   1.394       .  A
C497        F504   1.355       .  S
C498        C499   1.396       .  A
C498        H503   1.083       .  S
C499        C678   1.400       .  A
C500        C677   1.400   1_545  A
C500        F501   1.357       .  S
C505        C506   1.416       .  A
C505        C510   1.395       .  A
C505        H690   1.073       .  S
C506        C507   1.429       .  A
C507        C508   1.399       .  A
C507        F514   1.354       .  S
C508        C509   1.402       .  A
C508        H513   1.081       .  S
C509        C510   1.405       .  A
C510        F689   1.354       .  S
F511        C688   1.354       .  S
H512        C683   1.073       .  S
C515        C694   1.413       .  A
C515        C520   1.400       .  A
C515        H522   1.079       .  S
C516        C693   1.413       .  A
C516        C517   1.417       .  A
C517        C518   1.395       .  A
C517        F524   1.357       .  S
C518        C697   1.404       .  A
C518        H523   1.081       .  S
C519        C696   1.404       .  A
C519        C520   1.410       .  A
C520        F521   1.355       .  S
C525        C704   1.398       .  A
C525        C530   1.395       .  A
C525        H532   1.083       .  S
C526        C703   1.398   1_545  A
C526        C527   1.402       .  A
C527        C528   1.400       .  A
C527        F534   1.357       .  S
C528        C707   1.415   1_545  A
C528        H533   1.082       .  S
C529        C706   1.415       .  A
C529        C530   1.424       .  A
C530        F531   1.356       .  S
N535        N536   1.320       .  A
N535        C539   1.345       .  A
N536        C537   1.343       .  A
N536       Cu542   2.073       .  S
C537        C538   1.391       .  A
C537        H540   1.081       .  S
C538        C539   1.391       .  A
C538        C697   1.494       .  S
C539        H541   1.080       .  S
Cu542       N545   2.073       .  S
Cu543       N553   2.075   1_565  S
Cu544       N552   2.073       .  S
N545        N546   1.322       .  A
N545        C549   1.343       .  A
N546        C547   1.346       .  A
C547        C548   1.385       .  A
C547        H550   1.082       .  S
C548        C549   1.384       .  A
C548        C704   1.478       .  S
C549        H551   1.082       .  S
N552        N553   1.323       .  A
N552        C556   1.345       .  A
N553        C554   1.345   1_545  A
C554        C555   1.383   1_565  A
C554        H557   1.082       .  S
C555        C556   1.383       .  A
C555        C579   1.471       .  S
C556        H558   1.082       .  S
N559        N560   1.322   1_545  A
N559        C563   1.347       .  A
N559       Cu567   2.074       .  S
N560        C561   1.342       .  A
N560       Cu566   2.065       .  S
C561        C562   1.382       .  A
C561        H564   1.082       .  S
C562        C563   1.384   1_565  A
C562        C677   1.474       .  S
C563        H565   1.082       .  S
Cu566       N569   2.065       .  S
Cu567       N577   2.075       .  S
Cu568       N570   2.074       .  S
Cu568       N576   2.075       .  S
N569        N570   1.319       .  A
N569        C573   1.342       .  A
N570        C571   1.344       .  A
C571        C572   1.393       .  A
C571        H574   1.081       .  S
C572        C573   1.391       .  A
C572        C687   1.495       .  S
C573        H575   1.078       .  S
N576        N577   1.323   1_565  A
N576        C580   1.345       .  A
N577        C578   1.345       .  A
C578        C579   1.383       .  A
C578        H581   1.082       .  S
C579        C580   1.383   1_545  A
C580        H582   1.082       .  S
C583        C654   1.553       .  S
C583        C684   1.584       .  S
C584        C644   1.556       .  S
C584        C707   1.560   1_455  S
N585        N586   1.323       .  A
N585        C589   1.345       .  A
N585       Cu593   2.075       .  S
N586        C587   1.345       .  A
N586       Cu592   2.075       .  S
C587        C588   1.382       .  A
C587        H590   1.082       .  S
C588        C589   1.382       .  A
C588        C667   1.472       .  S
C589        H591   1.082       .  S
Cu592       N595   2.075       .  S
Cu593       N603   2.075       .  S
Cu594       N596   2.071       .  S
Cu594       N602   2.071       .  S
N595        N596   1.320       .  A
N595        C599   1.343       .  A
N596        C597   1.345       .  A
C597        C598   1.389       .  A
C597        H600   1.080       .  S
C598        C599   1.389       .  A
C598        C657   1.489       .  S
C599        H601   1.081       .  S
N602        N603   1.322       .  A
N602        C606   1.344       .  A
N603        C604   1.346       .  A
C604        H607   1.082       .  S
C605        C629   1.471       .  S
C606        H608   1.082       .  S
N609        N610   1.319       .  A
N609        C613   1.345       .  A
N609       Cu617   2.074   1_455  S
N610        C611   1.341       .  A
N610       Cu616   2.063       .  S
C611        C612   1.390       .  A
C611        H614   1.078       .  S
C612        C613   1.392       .  A
C612        C647   1.493       .  S
C613        H615   1.081       .  S
Cu616       N619   2.063   1_455  S
Cu617       N627   2.075       .  S
Cu618       N620   2.079       .  S
Cu618       N626   2.079       .  S
N619        N620   1.321       .  A
N619        C623   1.342       .  A
N620        C621   1.347       .  A
C621        C622   1.386       .  A
C621        H624   1.082       .  S
C622        C623   1.382       .  A
C622        C637   1.476       .  S
C623        H625   1.082   1_655  S
N626        N627   1.324       .  A
N626        C630   1.346       .  A
N627        C628   1.344       .  A
C628        C629   1.382   1_556  A
C628        H631   1.082   1_655  S
C629        C630   1.383   1_554  A
C630        H632   1.082       .  S
C633        C634   1.416       .  A
C633        C638   1.399       .  A
C633        H640   1.082       .  S
C635        C636   1.395       .  A
C635        F642   1.356       .  S
C636        H641   1.083       .  S
C637        C638   1.401       .  A
C638        F639   1.357       .  S
C643        C648   1.392       .  A
C643        H650   1.083       .  S
C644        C645   1.419       .  A
C645        C646   1.401       .  A
C645        F652   1.355       .  S
C646        C647   1.407       .  A
C646        H651   1.081       .  S
C648        F649   1.354       .  S
C653        C658   1.401       .  A
C653        H660   1.080       .  S
C654        C655   1.418       .  A
C655        C656   1.393       .  A
C655        F662   1.357       .  S
C656        C657   1.402       .  A
C656        H661   1.082       .  S
C658        F659   1.356       .  S
C663        C664   1.422       .  A
C663        C668   1.398       .  A
C663        H670   1.064       .  S
C665        C666   1.398       .  A
C665        F672   1.355       .  S
C666        H671   1.084       .  S
C667        C668   1.394       .  A
C668        F669   1.358       .  S
C673        C678   1.399       .  A
C673        H680   1.083       .  S
C674        C675   1.427       .  A
C675        C676   1.394       .  A
C675        F682   1.355       .  S
C676        C677   1.396       .  A
C676        H681   1.083       .  S
C678        F679   1.357       .  S
C683        C684   1.416       .  A
C683        C688   1.395       .  A
C684        C685   1.429       .  A
C685        C686   1.399       .  A
C685        F692   1.354       .  S
C686        C687   1.402       .  A
C686        H691   1.081       .  S
C687        C688   1.405       .  A
C693        C698   1.400       .  A
C693        H700   1.079       .  S
C694        C695   1.417       .  A
C695        C696   1.395       .  A
C695        F702   1.357   1_565  S
C696        H701   1.081   1_565  S
C697        C698   1.410       .  A
C698        F699   1.355       .  S
C703        C708   1.395       .  A
C703        H710   1.083       .  S
C704        C705   1.402       .  A
C705        C706   1.400       .  A
C705        F712   1.357       .  S
C706        H711   1.082       .  S
C707        C708   1.424       .  A
C708        F709   1.356       .  S
