geometry optimzed in LAMMPS
_audit_creation_date              2020-12-01 
_audit_creation_method            'lammps2cif' 
_symmetry_space_group_name_H-M    'P1' 
_symmetry_Int_Tables_number       1 
_symmetry_cell_setting            triclinic 
loop_ 
_symmetry_equiv_pos_as_xyz 
  x,y,z 
_cell_length_a                    40.47758839 
_cell_length_b                    30.37958132403699 
_cell_length_c                    29.810165847219 
_cell_angle_alpha                 90.88654284573248 
_cell_angle_beta                  90.62102564633454 
_cell_angle_gamma                 89.90993430147978 
loop_ 
_atom_site_label 
_atom_site_type_symbol 
_atom_site_fract_x 
_atom_site_fract_y 
_atom_site_fract_z 
_atom_site_charge 
Zn1        Zn  0.99748918  0.44780384  0.96534766     1.49700
Zn2        Zn  0.03773343  0.49648947  0.04560944     1.49400
Zn3        Zn  0.00091441  0.05279633  0.97085650     1.49100
Zn4        Zn  0.46141460  0.50033556  0.04222584     1.49500
O5          O  0.00002611  0.99859165  0.00569629    -1.84100
O6          O  0.03972688  0.41090018  0.97107545    -0.74700
O7          O  0.06747206  0.04535334  0.03642086    -0.74600
O8          O  0.99985297  0.03881202  0.90455146    -0.74100
O9          O  0.06520836  0.44720491  0.02646632    -0.74700
O10         O  0.99787587  0.46711481  0.90129028    -0.74300
O11         O  0.04460280  0.08448917  0.98188858    -0.74900
O12         O  0.43452541  0.04780826  0.03383560    -0.74300
O13         O  0.02833135  0.49268544  0.11173255    -0.75100
O14         O  0.45904311  0.08893651  0.98330460    -0.74500
O15         O  0.47165685  0.49620354  0.10777317    -0.74900
O16         O  0.43033886  0.45437861  0.02384900    -0.74800
O17         O  0.45287296  0.41644343  0.96800512    -0.74600
C18         C  0.06508927  0.41745935  0.99618177     0.77200
C19         C  0.06883125  0.07614102  0.00823546     0.77600
C20         C  0.99688931  0.00330239  0.88171962     0.76600
C21         C  0.43434967  0.08059903  0.00802688     0.77000
C22         C  0.49883407  0.49654173  0.12949073     0.78100
C23         C  0.42818555  0.42552494  0.99291626     0.77200
N24         N  0.29766566  0.25116400  0.98884127    -0.36600
N25         N  0.24765250  0.31687150  0.97997734    -0.57100
N26         N  0.20023192  0.24695181  0.98653172    -0.36600
N27         N  0.25081995  0.18113575  0.99572594    -0.57100
C28         C  0.31420236  0.28873767  0.99815753     0.27000
C29         C  0.31580071  0.21823583  0.00631156     0.27000
C30         C  0.18145766  0.28299942  0.99417344     0.27000
C31         C  0.18330572  0.21233679  0.00239866     0.27000
C32         C  0.27380807  0.34184175  0.96936658     0.35600
C33         C  0.22038443  0.33977090  0.96885475     0.35600
C34         C  0.27821379  0.15662933  0.98992094     0.35600
C35         C  0.22480055  0.15422791  0.98915773     0.35600
C36         C  0.34252535  0.27977076  0.02302491    -0.21900
C37         C  0.34357906  0.23506640  0.02808396    -0.21900
C38         C  0.15260158  0.27119836  0.01565563    -0.21900
C39         C  0.15376804  0.22658836  0.02080724    -0.21900
C40         C  0.26321860  0.38132158  0.95147423    -0.22900
C41         C  0.22908082  0.38009790  0.95139402    -0.22900
C42         C  0.26971422  0.11338510  0.97987497    -0.22900
C43         C  0.23555314  0.11181238  0.97960680    -0.22900
C44         C  0.30661265  0.32979131  0.97948466    -0.18300
C45         C  0.31024422  0.17332290  0.99741421    -0.18300
C46         C  0.19197379  0.16782613  0.99587931    -0.18300
C47         C  0.18823059  0.32558775  0.97862662    -0.18300
H48         H  0.36116983  0.30288864  0.03467474     0.14600
H49         H  0.36319986  0.21680957  0.04434673     0.14600
H50         H  0.13232085  0.29231589  0.02559506     0.14600
H51         H  0.13455155  0.20677531  0.03531023     0.14600
H52         H  0.27838758  0.40842039  0.94074899     0.12900
H53         H  0.21260359  0.40606295  0.94064384     0.12900
H54         H  0.28629323  0.08586969  0.97449407     0.12900
H55         H  0.22043998  0.08285442  0.97396720     0.12900
H56         H  0.27840164  0.24750821  0.96561038     0.26200
H57         H  0.22086372  0.24524947  0.96602174     0.26200
C58         C  0.50297931  0.00142096  0.68496053     0.80200
N59         N  0.49965922  0.46065227  0.65963180    -0.78100
C60         C  0.50311381  0.46041496  0.61437863     0.82700
N61         N  0.50931241  0.00022504  0.59383467    -0.78000
C62         C  0.50853028  0.03946192  0.61688596     0.82800
N63         N  0.50518318  0.03964599  0.66219014    -0.79700
C64         C  0.49494293  0.49591061  0.32324938     0.80200
N65         N  0.49529382  0.45743896  0.34562184    -0.78100
C66         C  0.49272113  0.45717100  0.39099477     0.82700
N67         N  0.49087401  0.49626562  0.41423975    -0.78000
C68         C  0.49832064  0.03404485  0.39132618     0.82800
N69         N  0.50107259  0.03209034  0.34598287    -0.79700
C70         C  0.00295453  0.29148276  0.53013935     0.02300
C71         C  0.99796190  0.29031935  0.48300406     0.02300
C72         C  0.99488666  0.24928605  0.46054721    -0.18200
C73         C  0.99738737  0.20932841  0.48382826     0.02300
C74         C  0.00281266  0.21056985  0.53087115     0.02300
C75         C  0.00540017  0.25157420  0.55341857    -0.18200
H76         H  0.00997532  0.25236811  0.58930312     0.04300
H77         H  0.99037666  0.24838480  0.42465557     0.04300
C78         C  0.02161845  0.38522053  0.40759678    -0.26300
C79         C  0.49330209  0.41407815  0.41400309    -0.14400
C80         C  0.46838915  0.40136336  0.44400560     0.36300
C81         C  0.46900624  0.35904471  0.46232663    -0.25700
C82         C  0.99643782  0.33210803  0.45718695    -0.15000
C83         C  0.02155838  0.34341863  0.42684590     0.37300
N84         N  0.04807024  0.31383972  0.41633670    -0.89200
H85         H  0.04091259  0.39322782  0.38415529     0.18500
H86         H  0.44991174  0.34994075  0.48561024     0.18500
N87         N  0.44182174  0.43034309  0.45575834    -0.88300
H88         H  0.03830028  0.28563104  0.40082277     0.35800
H89         H  0.05986175  0.30486732  0.44621665     0.40900
H90         H  0.42974714  0.43994254  0.42629102     0.40500
H91         H  0.45172075  0.45827455  0.47170023     0.35400
C92         C  0.01845341  0.11307036  0.40555970    -0.26300
C93         C  0.49731207  0.07788037  0.41412651    -0.14400
C94         C  0.47459540  0.08773851  0.44838951     0.36300
C95         C  0.47383340  0.13047396  0.46741905    -0.25700
C96         C  0.99541594  0.16633880  0.45859142    -0.15000
C97         C  0.01914930  0.15513717  0.42601980     0.37300
N98         N  0.04439581  0.18615854  0.41467045    -0.89200
H99         H  0.03659154  0.10473310  0.38032595     0.18500
H100        H  0.45586526  0.13822332  0.49298521     0.18500
N101        N  0.45210262  0.05461423  0.46332635    -0.88300
H102        H  0.05992474  0.17290235  0.39011331     0.35800
H103        H  0.05908084  0.19159295  0.44329356     0.40900
H104        H  0.43623754  0.04669947  0.43648764     0.40500
H105        H  0.43732148  0.06700480  0.48914915     0.35400
C106        C  0.48142972  0.11066219  0.60103077    -0.26300
C107        C  0.50824710  0.08222931  0.59340216    -0.14400
C108        C  0.03060711  0.09595913  0.56559683     0.36300
C109        C  0.03020262  0.13795202  0.54606647    -0.25700
C110        C  0.00557321  0.16903237  0.55676833    -0.15000
C111        C  0.47925938  0.15207338  0.58095312     0.37300
N112        N  0.44984328  0.17769354  0.58848791    -0.89200
H113        H  0.46142219  0.10012142  0.62222578     0.18500
H114        H  0.04869422  0.14620877  0.52159060     0.18500
N115        N  0.05588132  0.06460272  0.55413817    -0.88300
H116        H  0.42985821  0.15974180  0.57535103     0.35800
H117        H  0.45010457  0.20729532  0.57128494     0.40900
H118        H  0.07005537  0.05908467  0.58305772     0.40500
H119        H  0.07184688  0.07763921  0.53043640     0.35400
C120        C  0.47898515  0.38615256  0.60114326    -0.26300
C121        C  0.50293337  0.41744030  0.58991681    -0.14400
C122        C  0.03317036  0.40631983  0.56301711     0.36300
C123        C  0.03183727  0.36341559  0.54481365    -0.25700
C124        C  0.00595022  0.33447637  0.55507393    -0.15000
C125        C  0.47864345  0.34399553  0.58140830     0.37300
N126        N  0.45199404  0.31506927  0.59192264    -0.89200
H127        H  0.45996783  0.39481391  0.62505144     0.18500
H128        H  0.05078842  0.35285555  0.52160683     0.18500
N129        N  0.06011633  0.43408354  0.55101079    -0.88300
H130        H  0.46159969  0.28713028  0.60732596     0.35800
H131        H  0.44006327  0.30550126  0.56206592     0.40900
H132        H  0.07255501  0.44408914  0.58034310     0.40500
H133        H  0.05054589  0.46191201  0.53528692     0.35400
C134        C  0.36448394  0.15370713  0.96549400    -0.26300
C135        C  0.33978885  0.14469395  0.99673760    -0.14400
C136        C  0.34656920  0.11614431  0.03207377     0.36300
C137        C  0.37793076  0.09704824  0.03580911    -0.25700
C138        C  0.40314938  0.10626455  0.00492000    -0.15000
C139        C  0.39599060  0.13523975  0.96924607     0.37300
N140        N  0.41985754  0.14676983  0.93631948    -0.89200
H141        H  0.35953064  0.17684739  0.93890402     0.18500
H142        H  0.38244475  0.07490060  0.06335636     0.18500
N143        N  0.32204620  0.10781190  0.06514534    -0.88300
H144        H  0.42726287  0.11829531  0.91906452     0.35800
H145        H  0.44020426  0.16129815  0.95256433     0.40900
H146        H  0.33163575  0.11742433  0.09648558     0.40500
H147        H  0.31781724  0.07387873  0.06561130     0.35400
C148        C  0.12205179  0.40028458  0.02152689    -0.26300
C149        C  0.09667679  0.39342498  0.98934719    -0.14400
C150        C  0.10381675  0.36888279  0.94986642     0.36300
C151        C  0.13556410  0.35063821  0.94462818    -0.25700
C152        C  0.16012884  0.35656241  0.97777078    -0.15000
C153        C  0.15339381  0.38238873  0.01608212     0.37300
N154        N  0.17747042  0.38897852  0.05114940    -0.89200
H155        H  0.11758772  0.41947121  0.05180489     0.18500
H156        H  0.14070593  0.32965296  0.91579991     0.18500
N157        N  0.07914959  0.36250422  0.91534812    -0.88300
H158        H  0.19822891  0.40388908  0.03745010     0.35800
H159        H  0.18446255  0.35834048  0.06362324     0.40900
H160        H  0.06090823  0.34211544  0.92825632     0.40500
H161        H  0.08908276  0.34553719  0.88781257     0.35400
C162        C  0.12335752  0.09820263  0.04051818    -0.26300
C163        C  0.10071179  0.09952766  0.00436422    -0.14400
C164        C  0.11080583  0.11778264  0.96353277     0.36300
C165        C  0.14254452  0.13561836  0.96018453    -0.25700
C166        C  0.16454011  0.13585446  0.99688076    -0.15000
C167        C  0.15499916  0.11629842  0.03742591     0.37300
N168        N  0.17615315  0.11564104  0.07648890    -0.89200
H169        H  0.11632936  0.08339960  0.07184982     0.19500
H170        H  0.14948510  0.15158822  0.92940978     0.18500
N171        N  0.08912916  0.11803616  0.92523209    -0.88300
H172        H  0.16529421  0.13561210  0.10113535     0.35800
H173        H  0.19936819  0.12887652  0.07016012     0.40900
H174        H  0.10069633  0.10096665  0.89901841     0.40500
H175        H  0.08586186  0.15068353  0.91549147     0.35400
C176        C  0.33664631  0.39795605  0.00111845    -0.26300
C177        C  0.33457778  0.36048142  0.97365493    -0.14400
C178        C  0.36224363  0.34708585  0.94833976     0.36300
C179        C  0.39255291  0.36888694  0.95461568    -0.25700
C180        C  0.39550146  0.40434689  0.98509217    -0.15000
C181        C  0.36656452  0.42047204  0.00652978     0.37300
N182        N  0.36726648  0.45946864  0.03423154    -0.89200
H183        H  0.31539658  0.40845561  0.02037404     0.18500
H184        H  0.41405844  0.35731974  0.93659494     0.18500
N185        N  0.35974770  0.30959092  0.91847681    -0.88300
H186        H  0.35941455  0.45123128  0.06631601     0.35800
H187        H  0.35041555  0.48206665  0.02094509     0.40900
H188        H  0.34279168  0.31750576  0.89313087     0.40500
H189        H  0.38231528  0.30350673  0.90282861     0.35400
C190        C  0.02723979  0.47848649  0.25505294    -0.26300
C191        C  0.49504872  0.49559745  0.27392408    -0.14400
C192        C  0.47239075  0.00480377  0.25075704     0.36300
C193        C  0.47267663  0.00350089  0.20378331    -0.25700
C194        C  0.49813324  0.49541898  0.17923769    -0.15000
C195        C  0.02824363  0.47758081  0.20799967     0.37300
N196        N  0.05625676  0.45853947  0.18603347    -0.89200
H197        H  0.04788618  0.46523004  0.27400655     0.18500
H198        H  0.45116061  0.01533500  0.18565434     0.18500
N199        N  0.44286046  0.02023604  0.27246124    -0.88300
H200        H  0.05861541  0.42594307  0.19636234     0.35800
H201        H  0.07734160  0.47570638  0.19680605     0.40900
H202        H  0.44462960  0.01847128  0.30730596     0.40500
H203        H  0.42365561  0.99899489  0.26289563     0.35400
C204        C  0.00126229  0.04212605  0.76060940    -0.26300
C205        C  0.50174796  0.00199926  0.73497868    -0.14400
C206        C  0.50023861  0.45988702  0.75875726     0.36300
C207        C  0.49962862  0.46208297  0.80572042    -0.25700
C208        C  0.50081946  0.00565304  0.83036510    -0.15000
C209        C  0.00118179  0.04345622  0.80768636     0.37300
N210        N  0.00682059  0.08460676  0.83059946    -0.89200
H211        H  0.00571274  0.07248990  0.74308819     0.18500
H212        H  0.50113018  0.43155595  0.82395678     0.18500
N213        N  0.50308790  0.41767950  0.73703424    -0.88300
H214        H  0.98863216  0.10681539  0.82021589     0.35800
H215        H  0.02977078  0.09670025  0.82078161     0.40900
H216        H  0.48312703  0.39832844  0.74671308     0.40500
H217        H  0.52481460  0.40272086  0.74847020     0.35400
Zn218      Zn  0.99800638  0.94703228  0.96505621     1.49700
Zn219      Zn  0.03794547  0.99493325  0.04525338     1.49400
Zn220      Zn  0.00081784  0.55327781  0.97112986     1.49100
Zn221      Zn  0.46268858  0.99618238  0.04317469     1.49500
O222        O  0.99976495  0.49929093  0.00619738    -1.84100
O223        O  0.04204665  0.91392488  0.96745710    -0.74700
O224        O  0.06796054  0.54618379  0.03567578    -0.74600
O225        O  0.00129010  0.53966958  0.90474977    -0.74100
O226        O  0.06685193  0.94712534  0.02530076    -0.74700
O227        O  0.99492874  0.96635614  0.90102703    -0.74300
O228        O  0.04386034  0.58631116  0.98290333    -0.74900
O229        O  0.43390951  0.55205167  0.03246582    -0.74300
O230        O  0.02846279  0.98984805  0.11116079    -0.75100
O231        O  0.45752595  0.59042480  0.97902383    -0.74500
O232        O  0.47268153  0.99072887  0.10921616    -0.74900
O233        O  0.43271715  0.94949396  0.02263712    -0.74800
O234        O  0.45583961  0.91557404  0.96459228    -0.74600
C235        C  0.06742254  0.91990191  0.99265213     0.77200
C236        C  0.06858140  0.57771068  0.00829218     0.77600
C237        C  0.99986508  0.50401938  0.88193179     0.76600
C238        C  0.43327435  0.58339747  0.00496188     0.77000
C239        C  0.50006512  0.99004726  0.13052500     0.78100
C240        C  0.43098566  0.92265915  0.98976825     0.77200
N241        N  0.29823597  0.75209757  0.98130853    -0.36600
N242        N  0.24966037  0.81882387  0.96916547    -0.57100
N243        N  0.20045518  0.75124924  0.98022444    -0.36600
N244        N  0.24967976  0.68431870  0.99302544    -0.57100
C245        C  0.31586493  0.78923697  0.98824921     0.27000
C246        C  0.31562089  0.71936325  0.00039443     0.27000
C247        C  0.18258692  0.78840801  0.98620228     0.27000
C248        C  0.18267744  0.71809768  0.99763840     0.27000
C249        C  0.27628573  0.84247568  0.95752718     0.35600
C250        C  0.22278609  0.84247051  0.95785296     0.35600
C251        C  0.27653576  0.65858010  0.98808889     0.35600
C252        C  0.22312583  0.65802525  0.98814385     0.35600
C253        C  0.34414692  0.78021743  0.01323222    -0.21900
C254        C  0.34406201  0.73590556  0.02071911    -0.21900
C255        C  0.15342886  0.77871141  0.00814321    -0.21900
C256        C  0.15344456  0.73433171  0.01514966    -0.21900
C257        C  0.26639370  0.88178377  0.93859170    -0.22900
C258        C  0.23224050  0.88184492  0.93894083    -0.22900
C259        C  0.26717047  0.61523226  0.98052456    -0.22900
C260        C  0.23301514  0.61484585  0.98078016    -0.22900
C261        C  0.30891950  0.82983006  0.96812979    -0.18300
C262        C  0.30894178  0.67442489  0.99384858    -0.18300
C263        C  0.19054741  0.67303517  0.99397825    -0.18300
C264        C  0.19039039  0.83012444  0.96893314    -0.18300
H265        H  0.36344386  0.80293379  0.02359673     0.14600
H266        H  0.36333621  0.71761268  0.03768425     0.14600
H267        H  0.13370328  0.80107435  0.01730533     0.14600
H268        H  0.13380763  0.71598042  0.03057553     0.14600
H269        H  0.28205879  0.90803136  0.92704535     0.12900
H270        H  0.21626206  0.90816796  0.92773816     0.12900
H271        H  0.28319339  0.58695054  0.97632157     0.12900
H272        H  0.21733143  0.58620924  0.97672976     0.12900
H273        H  0.27864395  0.74806444  0.95866755     0.26200
H274        H  0.22115164  0.74778276  0.96004713     0.26200
C275        C  0.49989040  0.49888543  0.68376830     0.80200
N276        N  0.50283297  0.96278539  0.66151383    -0.78100
C277        C  0.50644467  0.96161559  0.61633325     0.82700
N278        N  0.50611137  0.49940538  0.59269024    -0.78000
C279        C  0.50578798  0.53810808  0.61654990     0.82800
N280        N  0.50240704  0.53744261  0.66174093    -0.79700
C281        C  0.50244874  0.99270661  0.32407958     0.80200
N282        N  0.50246432  0.95499630  0.34768177    -0.78100
C283        C  0.49932655  0.95615225  0.39297394     0.82700
N284        N  0.49692601  0.99585416  0.41482750    -0.78000
C285        C  0.49202849  0.53523229  0.39192393     0.82800
N286        N  0.49386530  0.53461061  0.34644370    -0.79700
C287        C  0.00701586  0.79185395  0.53000240     0.02300
C288        C  0.00297855  0.79045379  0.48267603     0.02300
C289        C  0.00087474  0.74922301  0.46041083    -0.18200
C290        C  0.00313696  0.70944480  0.48409209     0.02300
C291        C  0.00769087  0.71092657  0.53126986     0.02300
C292        C  0.00985744  0.75208984  0.55356512    -0.18200
H293        H  0.01372734  0.75310591  0.58958959     0.04300
H294        H  0.99685875  0.74800776  0.42442619     0.04300
C295        C  0.02441399  0.88624595  0.40667331    -0.26300
C296        C  0.49916034  0.91386529  0.41727815    -0.14400
C297        C  0.47484637  0.90346075  0.44909112     0.36300
C298        C  0.47408654  0.86121938  0.46742715    -0.25700
C299        C  0.00060992  0.83215055  0.45659022    -0.15000
C300        C  0.02546308  0.84452285  0.42623850     0.37300
N301        N  0.05275321  0.81615115  0.41599185    -0.89200
H302        H  0.04353794  0.89506592  0.38328807     0.18500
H303        H  0.45514064  0.85360623  0.49148436     0.18500
N304        N  0.45037013  0.93475853  0.46294844    -0.88300
H305        H  0.04374533  0.78737679  0.40069656     0.35800
H306        H  0.06472726  0.80795131  0.44597527     0.40900
H307        H  0.43771150  0.94579225  0.43451727     0.40500
H308        H  0.46233290  0.96146872  0.47849761     0.35400
C309        C  0.02342866  0.61241093  0.40632003    -0.26300
C310        C  0.49307441  0.57852335  0.41610093    -0.14400
C311        C  0.47112460  0.58928169  0.45103197     0.36300
C312        C  0.47189243  0.63190916  0.47055213    -0.25700
C313        C  0.00112763  0.66628103  0.45930780    -0.15000
C314        C  0.02468284  0.65453125  0.42669179     0.37300
N315        N  0.05013251  0.68511685  0.41498121    -0.89200
H316        H  0.04137399  0.60359953  0.38099156     0.18500
H317        H  0.45444026  0.64038085  0.49656654     0.18500
N318        N  0.44791068  0.55717169  0.46621210    -0.88300
H319        H  0.06545092  0.67148489  0.39040270     0.35800
H320        H  0.06496247  0.69049706  0.44348789     0.40900
H321        H  0.43147728  0.55034781  0.43974877     0.40500
H322        H  0.43385353  0.57008188  0.49257178     0.35400
C323        C  0.48097594  0.61120949  0.60401087    -0.26300
C324        C  0.50647380  0.58128934  0.59420142    -0.14400
C325        C  0.03973753  0.59943520  0.56900223     0.36300
C326        C  0.03756632  0.64136515  0.54974768    -0.25700
C327        C  0.01037846  0.66934517  0.55733905    -0.15000
C328        C  0.47967928  0.65304830  0.58488517     0.37300
N329        N  0.45143934  0.68031387  0.59452334    -0.89200
H330        H  0.46123566  0.60149955  0.62606618     0.18500
H331        H  0.05714457  0.65202163  0.52791052     0.18500
N332        N  0.06869085  0.57334147  0.56011868    -0.88300
H333        H  0.43047612  0.66371163  0.58249034     0.35800
H334        H  0.45205284  0.71002060  0.57753404     0.40900
H335        H  0.06824574  0.54351471  0.57686208     0.40500
H336        H  0.08909778  0.59064894  0.57304625     0.35400
C337        C  0.48161230  0.88753902  0.60351398    -0.26300
C338        C  0.50633206  0.91800361  0.59289384    -0.14400
C339        C  0.03170002  0.90870780  0.56386054     0.36300
C340        C  0.03260785  0.86578323  0.54569971    -0.25700
C341        C  0.00779433  0.83491440  0.55501589    -0.15000
C342        C  0.48116198  0.84497618  0.58459467     0.37300
N343        N  0.45393133  0.81682962  0.59458454    -0.89200
H344        H  0.46208887  0.89717643  0.62627029     0.18500
H345        H  0.05238619  0.85674954  0.52313316     0.18500
N346        N  0.05743304  0.93868441  0.55245969    -0.88300
H347        H  0.46296124  0.78887344  0.61058550     0.35800
H348        H  0.44242454  0.80713114  0.56446878     0.40900
H349        H  0.06892075  0.94988174  0.58205548     0.40500
H350        H  0.04677911  0.96554605  0.53623753     0.35400
C351        C  0.36147337  0.65121326  0.95967114    -0.26300
C352        C  0.33793292  0.64494254  0.99319238    -0.14400
C353        C  0.34600067  0.61966920  0.03058331     0.36300
C354        C  0.37770282  0.60166769  0.03444853    -0.25700
C355        C  0.40187189  0.60845839  0.00139341    -0.15000
C356        C  0.39322561  0.63351887  0.96329525     0.37300
N357        N  0.41578355  0.64164548  0.92768429    -0.89200
H358        H  0.35547986  0.67182477  0.93133333     0.18500
H359        H  0.38330994  0.58223511  0.06374672     0.18500
N360        N  0.32245505  0.61371399  0.06548101    -0.88300
H361        H  0.42293743  0.61157737  0.91329078     0.35800
H362        H  0.43647942  0.65803862  0.94089096     0.40900
H363        H  0.33268676  0.62609590  0.09543711     0.40500
H364        H  0.31871980  0.57990752  0.06910622     0.35400
C365        C  0.12662646  0.90825212  0.01184425    -0.26300
C366        C  0.09965442  0.89828144  0.98302797    -0.14400
C367        C  0.10526969  0.87192590  0.94427151     0.36300
C368        C  0.13703624  0.85456317  0.93683028    -0.25700
C369        C  0.16300082  0.86231331  0.96754949    -0.15000
C370        C  0.15787315  0.89050766  0.00465914     0.37300
N371        N  0.18343606  0.89932501  0.03720859    -0.89200
H372        H  0.12345192  0.92925844  0.04118487     0.18500
H373        H  0.14097090  0.83193366  0.90892569     0.18500
N374        N  0.07885886  0.86203120  0.91313952    -0.88300
H375        H  0.20336505  0.91363557  0.02091630     0.35800
H376        H  0.19127011  0.86955861  0.05090539     0.40900
H377        H  0.06217506  0.84169285  0.92946799     0.40500
H378        H  0.08762364  0.84378774  0.88569439     0.35400
C379        C  0.12202410  0.60373618  0.04108771    -0.26300
C380        C  0.09998663  0.60212816  0.00426283    -0.14400
C381        C  0.11016748  0.61897044  0.96284387     0.36300
C382        C  0.14126867  0.63870587  0.95954588    -0.25700
C383        C  0.16267504  0.64178458  0.99675799    -0.15000
C384        C  0.15308860  0.62364617  0.03802520     0.37300
N385        N  0.17365682  0.62587952  0.07764130    -0.89200
H386        H  0.11489063  0.58992673  0.07285678     0.19500
H387        H  0.14832050  0.65323794  0.92807437     0.18500
N388        N  0.08933659  0.61542036  0.92380254    -0.88300
H389        H  0.16164108  0.64589259  0.10122762     0.35800
H390        H  0.19637674  0.64059109  0.07143987     0.40900
H391        H  0.10214036  0.59774952  0.89910796     0.40500
H392        H  0.08497840  0.64712311  0.91192873     0.35400
C393        C  0.33899441  0.89692798  0.99200581    -0.26300
C394        C  0.33715063  0.86031748  0.96334341    -0.14400
C395        C  0.36541553  0.84675576  0.93932401     0.36300
C396        C  0.39586661  0.86763136  0.94789684    -0.25700
C397        C  0.39840823  0.90205316  0.97970354    -0.15000
C398        C  0.36909909  0.91820112  0.00009473     0.37300
N399        N  0.36959810  0.95596177  0.02954097    -0.89200
H400        H  0.31736327  0.90739141  0.01048372     0.18500
H401        H  0.41776199  0.85604352  0.93076509     0.18500
N402        N  0.36333570  0.80980664  0.90871123    -0.88300
H403        H  0.36060632  0.94659126  0.06071502     0.35800
H404        H  0.35358109  0.97965547  0.01639061     0.40900
H405        H  0.34733099  0.81855933  0.88256930     0.40500
H406        H  0.38632173  0.80341022  0.89430605     0.35400
C407        C  0.02287913  0.96976934  0.25384336    -0.26300
C408        C  0.50072317  0.99069325  0.27485892    -0.14400
C409        C  0.46740641  0.50956409  0.24833904     0.36300
C410        C  0.46940289  0.50942138  0.20144887    -0.25700
C411        C  0.50029126  0.98801284  0.18015931    -0.15000
C412        C  0.02375325  0.96841730  0.20676554     0.37300
N413        N  0.04663529  0.93972588  0.18449657    -0.89200
H414        H  0.03984384  0.94934077  0.27273061     0.18500
H415        H  0.44820960  0.52069169  0.18226018     0.18500
N416        N  0.43689391  0.52361827  0.26842213    -0.88300
H417        H  0.04213219  0.90757854  0.19483574     0.35800
H418        H  0.07049489  0.94842318  0.19506227     0.40900
H419        H  0.43762985  0.52145034  0.30328853     0.40500
H420        H  0.41841565  0.50186959  0.25737821     0.35400
C421        C  0.00384536  0.54272972  0.76060476    -0.26300
C422        C  0.49847463  0.49900094  0.73372248    -0.14400
C423        C  0.50615887  0.96334283  0.76020796     0.36300
C424        C  0.50568677  0.96562124  0.80710550    -0.25700
C425        C  0.49747927  0.50254820  0.82903313    -0.15000
C426        C  0.00180691  0.54430709  0.80762498     0.37300
N427        N  0.00049244  0.58624944  0.83017577    -0.89200
H428        H  0.00435181  0.57354210  0.74281488     0.18500
H429        H  0.50937837  0.93539937  0.82534198     0.18500
N430        N  0.51160801  0.92148031  0.73873427    -0.88300
H431        H  0.97993085  0.60336823  0.81796807     0.35800
H432        H  0.02167439  0.60391446  0.82194660     0.40900
H433        H  0.49300026  0.89998672  0.74866942     0.40500
H434        H  0.53426309  0.90909612  0.75008788     0.35400
Zn435      Zn  0.49742693  0.44811357  0.96329782     1.49700
Zn436      Zn  0.53644613  0.49947705  0.04283816     1.49400
Zn437      Zn  0.50043732  0.05315632  0.97007971     1.49100
Zn438      Zn  0.96277640  0.49980818  0.04624723     1.49500
O439        O  0.50017070  0.99856114  0.00429682    -1.84100
O440        O  0.53964812  0.41182872  0.97156770    -0.74700
O441        O  0.56748582  0.04618115  0.03530175    -0.74600
O442        O  0.49901418  0.04092740  0.90309580    -0.74100
O443        O  0.56428869  0.44895110  0.02720451    -0.74700
O444        O  0.49856936  0.46601376  0.89903409    -0.74300
O445        O  0.54407846  0.08466133  0.98079277    -0.74900
O446        O  0.93415775  0.04907826  0.03262022    -0.74300
O447        O  0.52622799  0.49846952  0.10907487    -0.75100
O448        O  0.95903851  0.08907635  0.98159548    -0.74500
O449        O  0.97396318  0.49900344  0.11211644    -0.74900
O450        O  0.93262539  0.45132818  0.03100144    -0.74800
O451        O  0.95319396  0.41586874  0.97209354    -0.74600
C452        C  0.56457033  0.41869550  0.99741955     0.77200
C453        C  0.56859704  0.07653805  0.00667011     0.77600
C454        C  0.50060071  0.00524466  0.88031435     0.76600
C455        C  0.93396946  0.08094572  0.00573377     0.77000
C456        C  0.00134735  0.49527370  0.13304497     0.78100
C457        C  0.92963221  0.42312132  0.99950254     0.77200
N458        N  0.79756198  0.25033551  0.98670410    -0.36600
N459        N  0.74765382  0.31743319  0.98190413    -0.57100
N460        N  0.69970994  0.24804747  0.98464221    -0.36600
N461        N  0.75013133  0.18092341  0.99016183    -0.57100
C462        C  0.81429984  0.28719843  0.99823307     0.27000
C463        C  0.81557330  0.21629528  0.00217957     0.27000
C464        C  0.68093676  0.28386699  0.99363270     0.27000
C465        C  0.68245015  0.21278456  0.99831926     0.27000
C466        C  0.77410232  0.34267493  0.97328692     0.35600
C467        C  0.72060710  0.34165986  0.97269844     0.35600
C468        C  0.77726791  0.15600169  0.98377510     0.35600
C469        C  0.72385214  0.15453970  0.98338094     0.35600
C470        C  0.84265942  0.27656296  0.02230276    -0.21900
C471        C  0.84349498  0.23164911  0.02472077    -0.21900
C472        C  0.65165789  0.27117112  0.01347154    -0.21900
C473        C  0.65265554  0.22638578  0.01652453    -0.21900
C474        C  0.76394230  0.38363392  0.95863297    -0.22900
C475        C  0.72977763  0.38305357  0.95845677    -0.22900
C476        C  0.76834581  0.11307202  0.97308403    -0.22900
C477        C  0.73419212  0.11211312  0.97293004    -0.22900
C478        C  0.80680153  0.32950621  0.98262654    -0.18300
C479        C  0.80947379  0.17183321  0.99165757    -0.18300
C480        C  0.69113918  0.16839953  0.99049882    -0.18300
C481        C  0.68822895  0.32736138  0.98120418    -0.18300
H482        H  0.86142321  0.29881005  0.03533347     0.14600
H483        H  0.86299614  0.21239449  0.04000123     0.14600
H484        H  0.63127303  0.29184740  0.02393578     0.14600
H485        H  0.63318038  0.20607608  0.02966336     0.14600
H486        H  0.77943769  0.41124752  0.95024723     0.12900
H487        H  0.71360269  0.41010617  0.94983802     0.12900
H488        H  0.78465134  0.08534496  0.96727961     0.12900
H489        H  0.71880164  0.08348456  0.96688188     0.12900
H490        H  0.77809293  0.24822781  0.96361413     0.26200
H491        H  0.72072589  0.24716192  0.96485296     0.26200
C492        C  0.99872636  0.00256690  0.68649764     0.80200
N493        N  0.00711485  0.46436179  0.66268870    -0.78100
C494        C  0.01050720  0.46385624  0.61748016     0.82700
N495        N  0.00843165  0.00316597  0.59600315    -0.78000
C496        C  0.00564288  0.04193260  0.61949761     0.82800
N497        N  0.00069700  0.04119057  0.66444637    -0.79700
C498        C  0.00102277  0.49760271  0.32711390     0.80200
N499        N  0.00057723  0.45939817  0.34994231    -0.78100
C500        C  0.99821384  0.45976725  0.39535045     0.82700
N501        N  0.99719992  0.49911167  0.41812733    -0.78000
C502        C  0.99559652  0.03774271  0.39439104     0.82800
N503        N  0.99774256  0.03689452  0.34898998    -0.79700
C504        C  0.50215531  0.28866852  0.52557753     0.02300
C505        C  0.49724709  0.28730566  0.47840226     0.02300
C506        C  0.49487716  0.24611175  0.45613838    -0.18200
C507        C  0.49773303  0.20624641  0.47961297     0.02300
C508        C  0.50276640  0.20775057  0.52675447     0.02300
C509        C  0.50534975  0.24888213  0.54898450    -0.18200
H510        H  0.50982469  0.24983169  0.58488721     0.04300
H511        H  0.49034758  0.24501766  0.42025740     0.04300
C512        C  0.51806273  0.38346808  0.40271728    -0.26300
C513        C  0.99775820  0.41705043  0.41886344    -0.14400
C514        C  0.97269677  0.40590886  0.44930041     0.36300
C515        C  0.97194376  0.36354093  0.46739806    -0.25700
C516        C  0.49451422  0.32899801  0.45240289    -0.15000
C517        C  0.51917932  0.34157957  0.42186997     0.37300
N518        N  0.54635258  0.31322852  0.41101003    -0.89200
H519        H  0.53713711  0.39252280  0.37935277     0.18500
H520        H  0.95265113  0.35549568  0.49079552     0.18500
N521        N  0.94741303  0.43659395  0.46183001    -0.88300
H522        H  0.53716715  0.28460612  0.39559266     0.35800
H523        H  0.55853488  0.30473409  0.44074031     0.40900
H524        H  0.93539521  0.44721958  0.43272150     0.40500
H525        H  0.95856550  0.46369898  0.47776727     0.35400
C526        C  0.51864351  0.11112183  0.39960086    -0.26300
C527        C  0.99539267  0.08111863  0.41811628    -0.14400
C528        C  0.97175385  0.09204043  0.45086943     0.36300
C529        C  0.97167211  0.13474069  0.47024204    -0.25700
C530        C  0.49632013  0.16313104  0.45451220    -0.15000
C531        C  0.51883211  0.15327714  0.41992585     0.37300
N532        N  0.54224548  0.18581025  0.40616222    -0.89200
H533        H  0.53595510  0.10373795  0.37303885     0.18500
H534        H  0.95345064  0.14321460  0.49529784     0.18500
N535        N  0.94776988  0.06000178  0.46396880    -0.88300
H536        H  0.55690629  0.17347871  0.38015991     0.35800
H537        H  0.55813541  0.19227308  0.43333492     0.40900
H538        H  0.93277668  0.05292955  0.43599807     0.40500
H539        H  0.93232356  0.07311790  0.48868878     0.35400
C540        C  0.98243624  0.11688999  0.60891229    -0.26300
C541        C  0.00616493  0.08510918  0.59692943    -0.14400
C542        C  0.53447334  0.09667498  0.56616754     0.36300
C543        C  0.53251085  0.13839214  0.54640301    -0.25700
C544        C  0.50521503  0.16636093  0.55311467    -0.15000
C545        C  0.98176653  0.15838036  0.58885097     0.37300
N546        N  0.95611867  0.18908087  0.59990948    -0.89200
H547        H  0.96373227  0.10907982  0.63327769     0.18500
H548        H  0.55233202  0.14887808  0.52487915     0.18500
N549        N  0.56358270  0.07058294  0.55826842    -0.88300
H550        H  0.95733886  0.19548532  0.63444635     0.35800
H551        H  0.93338747  0.17415215  0.59263920     0.40900
H552        H  0.56300842  0.04097222  0.57537144     0.40500
H553        H  0.58379777  0.08811117  0.57144887     0.35400
C554        C  0.98319561  0.39144105  0.60429842    -0.26300
C555        C  0.00863559  0.42072453  0.59328061    -0.14400
C556        C  0.52747898  0.40548142  0.55859348     0.36300
C557        C  0.52788514  0.36271356  0.54006894    -0.25700
C558        C  0.50350482  0.33167421  0.55065764    -0.15000
C559        C  0.98133316  0.34903141  0.58518268     0.37300
N560        N  0.95354649  0.32208196  0.59574683    -0.89200
H561        H  0.96429255  0.40185207  0.62767700     0.18500
H562        H  0.54693678  0.35393221  0.51628453     0.18500
N563        N  0.55267229  0.43564447  0.54567431    -0.88300
H564        H  0.96206469  0.29356060  0.61120301     0.35800
H565        H  0.94136325  0.31316966  0.56586720     0.40900
H566        H  0.56515670  0.44677957  0.57454684     0.40500
H567        H  0.54140951  0.46247995  0.53016061     0.35400
C568        C  0.86288991  0.14955191  0.95889290    -0.26300
C569        C  0.83859956  0.14244634  0.99123547    -0.14400
C570        C  0.84597164  0.11643192  0.02838109     0.36300
C571        C  0.87759540  0.09832053  0.03305874    -0.25700
C572        C  0.90244180  0.10571455  0.00110923    -0.15000
C573        C  0.89458709  0.13164932  0.96331613     0.37300
N574        N  0.91793470  0.14049508  0.92885460    -0.89200
H575        H  0.85750650  0.17086208  0.93089401     0.18500
H576        H  0.88262837  0.07840211  0.06219499     0.18500
N577        N  0.82179378  0.10996790  0.06237361    -0.88300
H578        H  0.92550809  0.11068040  0.91430966     0.35800
H579        H  0.93829169  0.15671912  0.94323798     0.40900
H580        H  0.83149285  0.12189699  0.09283642     0.40500
H581        H  0.81796330  0.07611023  0.06534638     0.35400
C582        C  0.62001286  0.39792762  0.02636553    -0.26300
C583        C  0.59619010  0.39449098  0.99162215    -0.14400
C584        C  0.60520886  0.37414458  0.95048183     0.36300
C585        C  0.63712813  0.35623923  0.94602048    -0.25700
C586        C  0.66018285  0.35861713  0.98145728    -0.15000
C587        C  0.65166581  0.38052895  0.02160999     0.37300
N588        N  0.67426546  0.38367027  0.05885680    -0.89200
H589        H  0.61403210  0.41415139  0.05788316     0.18500
H590        H  0.64357659  0.33834684  0.91561442     0.18500
N591        N  0.58235212  0.37213993  0.91327017    -0.88300
H592        H  0.69558506  0.39963639  0.04820831     0.35800
H593        H  0.68073914  0.35191124  0.06871877     0.40900
H594        H  0.56349043  0.35043653  0.92173993     0.40500
H595        H  0.59367499  0.35849567  0.88491057     0.35400
C596        C  0.62436435  0.09686738  0.03611551    -0.26300
C597        C  0.60045404  0.09963145  0.00154160    -0.14400
C598        C  0.60907030  0.11955936  0.96085011     0.36300
C599        C  0.64063447  0.13751468  0.95612416    -0.25700
C600        C  0.66375005  0.13647208  0.99142964    -0.15000
C601        C  0.65565161  0.11545069  0.03160950     0.37300
N602        N  0.67810332  0.11468055  0.06908421    -0.89200
H603        H  0.61852004  0.08101415  0.06735992     0.19500
H604        H  0.64651045  0.15473625  0.92564814     0.18500
N605        N  0.58600647  0.12165519  0.92415932    -0.88300
H606        H  0.68370997  0.14711166  0.07860568     0.35800
H607        H  0.69987758  0.09917939  0.05884370     0.40900
H608        H  0.59650715  0.10576088  0.89640330     0.40500
H609        H  0.58248817  0.15475345  0.91623687     0.35400
C610        C  0.83885244  0.39249913  0.01304998    -0.26300
C611        C  0.83492930  0.36032624  0.97959449    -0.14400
C612        C  0.86146084  0.35017679  0.95086176     0.36300
C613        C  0.89223781  0.37060149  0.95806611    -0.25700
C614        C  0.89695151  0.40121844  0.99334765    -0.15000
C615        C  0.86936061  0.41318932  0.02013678     0.37300
N616        N  0.87201853  0.44596761  0.05508238    -0.89200
H617        H  0.81861856  0.39982727  0.03551348     0.18500
H618        H  0.91266602  0.36203807  0.93642913     0.18500
N619        N  0.85731912  0.31732279  0.91602899    -0.88300
H620        H  0.86554989  0.43156842  0.08537587     0.35800
H621        H  0.85499059  0.47099076  0.04828667     0.40900
H622        H  0.83963378  0.32909115  0.89335479     0.40500
H623        H  0.87920549  0.31314043  0.89815210     0.35400
C624        C  0.52348635  0.48075688  0.25194808    -0.26300
C625        C  0.00024134  0.49673136  0.27776567    -0.14400
C626        C  0.97866553  0.02379232  0.25161352     0.36300
C627        C  0.97908724  0.02178675  0.20462892    -0.25700
C628        C  0.00153982  0.49486408  0.18290104    -0.15000
C629        C  0.52532514  0.48062592  0.20496361     0.37300
N630        N  0.55464772  0.46471334  0.18364749    -0.89200
H631        H  0.54454412  0.46949947  0.27143256     0.18500
H632        H  0.96194664  0.04211235  0.18590722     0.18500
N633        N  0.95524182  0.05173103  0.27384833    -0.88300
H634        H  0.55864802  0.43228543  0.19365029     0.35800
H635        H  0.57454793  0.48376750  0.19526833     0.40900
H636        H  0.93154088  0.04231076  0.26326003     0.40500
H637        H  0.95919508  0.08402531  0.26354449     0.35400
C638        C  0.49670424  0.04215235  0.75819515    -0.26300
C639        C  0.99650946  0.00247563  0.73638443    -0.14400
C640        C  0.00445561  0.46291868  0.76130563     0.36300
C641        C  0.00226517  0.46456631  0.80816354    -0.25700
C642        C  0.99605620  0.00437941  0.83177363    -0.15000
C643        C  0.49610714  0.04432169  0.80534337     0.37300
N644        N  0.49047013  0.08585869  0.82736031    -0.89200
H645        H  0.49305350  0.07226575  0.73977227     0.18500
H646        H  0.00187072  0.43373195  0.82593641     0.18500
N647        N  0.00618632  0.42076878  0.73922114    -0.88300
H648        H  0.46772379  0.09811173  0.81617283     0.35800
H649        H  0.50890404  0.10765175  0.81753562     0.40900
H650        H  0.98506394  0.40292974  0.74732269     0.40500
H651        H  0.02679514  0.40399950  0.75179946     0.35400
Zn652      Zn  0.50011162  0.94785297  0.96282228     1.49700
Zn653      Zn  0.53752014  0.99662600  0.04466476     1.49400
Zn654      Zn  0.49876856  0.55374004  0.96691709     1.49100
Zn655      Zn  0.96325009  0.99953645  0.04562747     1.49500
O656        O  0.49863916  0.50036940  0.00293437    -1.84100
O657        O  0.54208983  0.91131980  0.97103313    -0.74700
O658        O  0.56712495  0.54777801  0.02910318    -0.74600
O659        O  0.49655038  0.53869818  0.90101945    -0.74100
O660        O  0.56594472  0.94767874  0.02776068    -0.74700
O661        O  0.50204719  0.96832283  0.89969954    -0.74300
O662        O  0.54292313  0.58489492  0.97425282    -0.74900
O663        O  0.93368411  0.54976425  0.03330914    -0.74300
O664        O  0.52723917  0.99229418  0.10985013    -0.75100
O665        O  0.95825984  0.58771443  0.98036296    -0.74500
O666        O  0.97434658  0.99997270  0.11131348    -0.74900
O667        O  0.93405861  0.95022818  0.03140944    -0.74800
O668        O  0.95569977  0.91132313  0.97548038    -0.74600
C669        C  0.56660878  0.91787900  0.99762363     0.77200
C670        C  0.56806458  0.57689122  0.99903888     0.77600
C671        C  0.49747753  0.50259676  0.87895017     0.76600
C672        C  0.93319168  0.58016540  0.00464258     0.77000
C673        C  0.00151647  0.99444741  0.13222503     0.78100
C674        C  0.93208144  0.91924613  0.00265439     0.77200
N675        N  0.79808705  0.74823464  0.98477303    -0.36600
N676        N  0.74927187  0.81609999  0.98514688    -0.57100
N677        N  0.70029742  0.74711108  0.97905409    -0.36600
N678        N  0.74973279  0.67936169  0.97924450    -0.57100
C679        C  0.81533380  0.78367931  0.99933438     0.27000
C680        C  0.81528925  0.71261589  0.99800128     0.27000
C681        C  0.68203154  0.78225639  0.99186722     0.27000
C682        C  0.68232725  0.71095719  0.98825970     0.27000
C683        C  0.77593760  0.84182304  0.97949327     0.35600
C684        C  0.72250876  0.84149165  0.97826762     0.35600
C685        C  0.77690681  0.65491263  0.97159032     0.35600
C686        C  0.72349794  0.65410469  0.96833862     0.35600
C687        C  0.84328357  0.77057541  0.02289315    -0.21900
C688        C  0.84315921  0.72556882  0.02228911    -0.21900
C689        C  0.65233246  0.76824868  0.00956635    -0.21900
C690        C  0.65258268  0.72331739  0.00747450    -0.21900
C691        C  0.76621493  0.88429566  0.96940469    -0.22900
C692        C  0.73206079  0.88413629  0.96881581    -0.22900
C693        C  0.76806720  0.61349308  0.95553932    -0.22900
C694        C  0.73391540  0.61294010  0.95356831    -0.22900
C695        C  0.80843911  0.82723101  0.98736018    -0.18300
C696        C  0.80891163  0.66923719  0.98335681    -0.18300
C697        C  0.69072831  0.66726939  0.97634121    -0.18300
C698        C  0.68998034  0.82666402  0.98425777    -0.18300
H699        H  0.86230951  0.79128004  0.03779054     0.14600
H700        H  0.86216495  0.70473607  0.03650489     0.14600
H701        H  0.63217840  0.78825597  0.02200666     0.14600
H702        H  0.63270732  0.70223407  0.01809808     0.14600
H703        H  0.78198492  0.91246352  0.96424691     0.12900
H704        H  0.71613702  0.91216595  0.96296352     0.12900
H705        H  0.78439244  0.58630104  0.94756305     0.12900
H706        H  0.71854900  0.58523688  0.94373002     0.12900
H707        H  0.77892664  0.74840946  0.96114778     0.26200
H708        H  0.72154766  0.74796409  0.95974727     0.26200
C709        C  0.00789094  0.50254920  0.68682449     0.80200
N710        N  0.00067626  0.96431895  0.66261553    -0.78100
C711        C  0.00555639  0.96410589  0.61765295     0.82700
N712        N  0.01408326  0.50274312  0.59565018    -0.78000
C713        C  0.01424181  0.54159145  0.61943790     0.82800
N714        N  0.01099334  0.54106336  0.66474432    -0.79700
C715        C  0.00045228  0.99819791  0.32606443     0.80200
N716        N  0.00211665  0.95997735  0.34891875    -0.78100
C717        C  0.99904533  0.95990859  0.39425938     0.82700
N718        N  0.99562329  0.99900883  0.41707164    -0.78000
C719        C  0.99918898  0.53768838  0.39535010     0.82800
N720        N  0.00104616  0.53656321  0.34989748    -0.79700
C721        C  0.50454943  0.78858484  0.52966077     0.02300
C722        C  0.49966529  0.78759529  0.48247166     0.02300
C723        C  0.49621870  0.74664316  0.45987026    -0.18200
C724        C  0.49812184  0.70653010  0.48298559     0.02300
C725        C  0.50341566  0.70769707  0.53006764     0.02300
C726        C  0.50691652  0.74855159  0.55269111    -0.18200
H727        H  0.51134856  0.74908924  0.58860994     0.04300
H728        H  0.49153612  0.74596067  0.42402106     0.04300
C729        C  0.52258937  0.88163562  0.40549066    -0.26300
C730        C  0.99968670  0.91702107  0.41766833    -0.14400
C731        C  0.97483361  0.90469391  0.44794455     0.36300
C732        C  0.97517619  0.86238884  0.46622860    -0.25700
C733        C  0.49818992  0.82941343  0.45669800    -0.15000
C734        C  0.52281146  0.84017016  0.42540526     0.37300
N735        N  0.54916189  0.81043956  0.41459520    -0.89200
H736        H  0.54143300  0.88911773  0.38120412     0.18500
H737        H  0.95593886  0.85348928  0.48936942     0.18500
N738        N  0.94860859  0.93407028  0.46012367    -0.88300
H739        H  0.53921869  0.78206460  0.39962672     0.35800
H740        H  0.56134961  0.80183924  0.44429655     0.40900
H741        H  0.93647484  0.94410043  0.43087434     0.40500
H742        H  0.95883240  0.96168387  0.47630748     0.35400
C743        C  0.51560440  0.61056717  0.40202096    -0.26300
C744        C  0.99991114  0.58107134  0.41899977    -0.14400
C745        C  0.97645526  0.59265368  0.45175827     0.36300
C746        C  0.97695720  0.63533687  0.47096584    -0.25700
C747        C  0.49529545  0.66348049  0.45764857    -0.15000
C748        C  0.51747745  0.65239935  0.42301624     0.37300
N749        N  0.54230257  0.68331289  0.40991799    -0.89200
H750        H  0.53250991  0.60244528  0.37518461     0.18500
H751        H  0.95863238  0.64442745  0.49564529     0.18500
N752        N  0.95193218  0.56135254  0.46487999    -0.88300
H753        H  0.55659614  0.67021301  0.38391132     0.35800
H754        H  0.55827531  0.68825174  0.43732620     0.40900
H755        H  0.93680232  0.55475694  0.43694101     0.40500
H756        H  0.93672854  0.57489707  0.48966080     0.35400
C757        C  0.98723577  0.61326078  0.60536076    -0.26300
C758        C  0.01386490  0.58477470  0.59670235    -0.14400
C759        C  0.53243615  0.59459317  0.56596409     0.36300
C760        C  0.53138624  0.63672390  0.54720674    -0.25700
C761        C  0.50526701  0.66611891  0.55587977    -0.15000
C762        C  0.98481070  0.65485829  0.58570340     0.37300
N763        N  0.95555351  0.68048205  0.59427384    -0.89200
H764        H  0.96750624  0.60256049  0.62694410     0.18500
H765        H  0.55094699  0.64642107  0.52487002     0.18500
N766        N  0.56042857  0.56698947  0.55610889    -0.88300
H767        H  0.93533403  0.66256011  0.58172629     0.35800
H768        H  0.95549921  0.71006200  0.57710201     0.40900
H769        H  0.55958791  0.53736520  0.57317727     0.40500
H770        H  0.58155266  0.58330137  0.56811916     0.35400
C771        C  0.98163229  0.88994797  0.60325138    -0.26300
C772        C  0.00608030  0.92103799  0.59336900    -0.14400
C773        C  0.53175485  0.90455457  0.56353412     0.36300
C774        C  0.53183013  0.86152447  0.54550108    -0.25700
C775        C  0.50652153  0.83146357  0.55508826    -0.15000
C776        C  0.98188866  0.84760531  0.58395750     0.37300
N777        N  0.95483573  0.81882760  0.59301209    -0.89200
H778        H  0.96179679  0.89889072  0.62579286     0.18500
H779        H  0.55131091  0.85181969  0.52273227     0.18500
N780        N  0.55814539  0.93351280  0.55217133    -0.88300
H781        H  0.96391876  0.79093132  0.60900924     0.35800
H782        H  0.94384994  0.80914624  0.56251340     0.40900
H783        H  0.56977567  0.94435919  0.58181569     0.40500
H784        H  0.54812675  0.96071046  0.53583439     0.35400
C785        C  0.86377912  0.64938388  0.95412424    -0.26300
C786        C  0.83761764  0.63920515  0.98263984    -0.14400
C787        C  0.84282298  0.60985466  0.01774952     0.36300
C788        C  0.87436133  0.59221887  0.02486992    -0.25700
C789        C  0.90125583  0.60345299  0.99742946    -0.15000
C790        C  0.89540717  0.63218286  0.96110585     0.37300
N791        N  0.92082344  0.64516115  0.93100702    -0.89200
H792        H  0.85995565  0.67309308  0.92774121     0.18500
H793        H  0.87766342  0.56975709  0.05244233     0.18500
N794        N  0.81647480  0.59959174  0.04751066    -0.88300
H795        H  0.92981407  0.61726131  0.91420000     0.35800
H796        H  0.93985610  0.66031380  0.94949419     0.40900
H797        H  0.82377581  0.60879122  0.08005958     0.40500
H798        H  0.81308221  0.56547042  0.04664715     0.35400
C799        C  0.62026056  0.89414538  0.02956728    -0.26300
C800        C  0.59811249  0.89363332  0.99274111    -0.14400
C801        C  0.60877769  0.87633058  0.95102600     0.36300
C802        C  0.64073628  0.85852796  0.94778336    -0.25700
C803        C  0.66209071  0.85789009  0.98511410    -0.15000
C804        C  0.65194358  0.87666475  0.02611064     0.37300
N805        N  0.67283148  0.87646033  0.06523285    -0.89200
H806        H  0.61286742  0.90803964  0.06163671     0.18500
H807        H  0.64850743  0.84300577  0.91665259     0.18500
N808        N  0.58758117  0.87745556  0.91205962    -0.88300
H809        H  0.69472653  0.89286119  0.05775062     0.35800
H810        H  0.67862575  0.84386833  0.07288321     0.40900
H811        H  0.56827530  0.85535931  0.91719761     0.40500
H812        H  0.60008507  0.86587483  0.88370955     0.35400
C813        C  0.62613253  0.59288715  0.02253213    -0.26300
C814        C  0.60026013  0.59870251  0.99113197    -0.14400
C815        C  0.60696300  0.62096651  0.95096010     0.36300
C816        C  0.63847886  0.63859967  0.94413308    -0.25700
C817        C  0.66348687  0.63488513  0.97680548    -0.15000
C818        C  0.65738084  0.61089953  0.01591690     0.37300
N819        N  0.68189825  0.60658029  0.05061447    -0.89200
H820        H  0.62194841  0.57508199  0.05316320     0.19500
H821        H  0.64281725  0.65793140  0.91451022     0.18500
N822        N  0.58193490  0.62619260  0.91711846    -0.88300
H823        H  0.68877055  0.63800110  0.06200138     0.35800
H824        H  0.70262073  0.59108921  0.03690911     0.40900
H825        H  0.59050006  0.61191854  0.88729158     0.40500
H826        H  0.57861558  0.65987524  0.91188802     0.35400
C827        C  0.84373614  0.88316877  0.02444700    -0.26300
C828        C  0.83698645  0.85739504  0.98637167    -0.14400
C829        C  0.86151852  0.85118978  0.95359577     0.36300
C830        C  0.89282378  0.87037066  0.96008349    -0.25700
C831        C  0.90010787  0.89539194  0.99894740    -0.15000
C832        C  0.87498473  0.90178026  0.03136781     0.37300
N833        N  0.88114384  0.92622985  0.07209715    -0.89200
H834        H  0.82528297  0.88651189  0.05037504     0.18500
H835        H  0.91146161  0.86589703  0.93460341     0.18500
N836        N  0.85476005  0.82387347  0.91477476    -0.88300
H837        H  0.87672143  0.90560907  0.09912942     0.35800
H838        H  0.86429521  0.95233245  0.07365992     0.40900
H839        H  0.83600600  0.83912621  0.89626665     0.40500
H840        H  0.87542502  0.82209907  0.89407811     0.35400
C841        C  0.52786894  0.97376509  0.25148630    -0.26300
C842        C  0.00070828  0.99754501  0.27654522    -0.14400
C843        C  0.97314870  0.51348445  0.25286029     0.36300
C844        C  0.97427715  0.51246739  0.20589996    -0.25700
C845        C  0.00161268  0.99457805  0.18182004    -0.15000
C846        C  0.52793273  0.97229162  0.20444539     0.37300
N847        N  0.55595871  0.95429936  0.18160193    -0.89200
H848        H  0.54932134  0.96205659  0.26986981     0.18500
H849        H  0.95352423  0.52582797  0.18726978     0.18500
N850        N  0.94396744  0.53116975  0.27368883    -0.88300
H851        H  0.55939568  0.92194781  0.19221492     0.35800
H852        H  0.57678193  0.97253528  0.19134284     0.40900
H853        H  0.94498068  0.52899186  0.30852854     0.40500
H854        H  0.92397485  0.51164530  0.26323846     0.35400
C855        C  0.49609288  0.53949672  0.75707723    -0.26300
C856        C  0.00527842  0.50241322  0.73675705    -0.14400
C857        C  0.99071591  0.96357653  0.76052004     0.36300
C858        C  0.99062160  0.96493641  0.80754180    -0.25700
C859        C  0.00108795  0.50478201  0.83200679    -0.15000
C860        C  0.49568723  0.54167180  0.80410355     0.37300
N861        N  0.49356971  0.58383794  0.82609386    -0.89200
H862        H  0.49466875  0.57004971  0.73888817     0.18500
H863        H  0.98633269  0.93454170  0.82509359     0.18500
N864        N  0.98474530  0.92243188  0.73775130    -0.88300
H865        H  0.47195093  0.59934638  0.81505621     0.35800
H866        H  0.51369016  0.60276809  0.81616363     0.40900
H867        H  0.96166896  0.91075526  0.74751193     0.40500
H868        H  0.00271329  0.89995740  0.74826170     0.35400
loop_ 
_geom_bond_atom_site_label_1 
_geom_bond_atom_site_label_2 
_geom_bond_distance 
_geom_bond_site_symmetry_2 
_ccdc_geom_bond_type 
Zn1           O6   2.050   1_655  S
Zn1          O10   2.007       .  S
Zn1         O451   2.053       .  S
Zn1         O222   1.969   1_556  S
Zn2           O9   1.946       .  S
Zn2          O13   2.017       .  S
Zn2         O224   1.973       .  S
Zn2         O222   1.927   1_455  S
Zn3           O8   2.015   1_455  S
Zn3          O11   2.036       .  S
Zn3         O448   2.046   1_455  S
Zn3           O5   1.961   1_546  S
Zn4          O15   1.999       .  S
Zn4          O16   1.949       .  S
Zn4         O229   1.948       .  S
Zn4         O656   1.918       .  S
O5         Zn218   1.967   1_454  S
O5         Zn219   1.930       .  S
O5         Zn655   1.916   1_455  S
O6           C18   1.278       .  A
O7         Zn219   1.967   1_545  S
O7           C19   1.269       .  A
O8           C20   1.272       .  A
O9           C18   1.267   1_554  A
O10         C237   1.272       .  A
O11          C19   1.277   1_556  A
O12        Zn221   1.959   1_545  S
O12          C21   1.268       .  A
O13         C456   1.271       .  A
O14        Zn437   2.035       .  S
O14          C21   1.276   1_556  A
O15          C22   1.270       .  A
O16          C23   1.265   1_554  A
O17        Zn435   2.053       .  S
O17          C23   1.279       .  A
C18         C149   1.486       .  S
C19         C163   1.481       .  S
C20         O227   1.272   1_545  A
C20         C642   1.490       .  S
C21         C138   1.486       .  S
C22         O447   1.273       .  A
C22         C194   1.484       .  S
C23         C180   1.487       .  S
N24          C29   1.348   1_556  A
N24          C28   1.348       .  A
N24          H56   1.042       .  S
N25          C32   1.347       .  A
N25          C33   1.345       .  A
N26          C31   1.350   1_556  A
N26          C30   1.350       .  A
N26          H57   1.041       .  S
N27          C34   1.346       .  A
N27          C35   1.345       .  A
C28          C36   1.387   1_556  A
C28          C44   1.406       .  A
C29          C45   1.404   1_554  A
C29          C37   1.387       .  A
C30          C38   1.388   1_556  A
C30          C47   1.409       .  A
C31          C46   1.408   1_554  A
C31          C39   1.387       .  A
C32          C44   1.408       .  A
C32          C40   1.386       .  A
C33          C47   1.407       .  A
C33          C41   1.386       .  A
C34          C42   1.386       .  A
C34          C45   1.407       .  A
C35          C43   1.386       .  A
C35          C46   1.406       .  A
C36          C37   1.369       .  A
C36          H48   1.083       .  S
C37          H49   1.083       .  S
C38          C39   1.367       .  A
C38          H50   1.082       .  S
C39          H51   1.082       .  S
C40          C41   1.382       .  A
C40          H52   1.082       .  S
C41          H53   1.082       .  S
C42          C43   1.384       .  A
C42          H54   1.082       .  S
C43          H55   1.082       .  S
C44         C177   1.481       .  S
C45         C135   1.478       .  S
C46         C166   1.477       .  S
C47         C152   1.475       .  S
C58         C205   1.492       .  S
C58          N63   1.358       .  A
C58         N276   1.357   1_545  A
N59          C60   1.358       .  A
N59         C275   1.357       .  A
C60         C121   1.486       .  S
C60         N278   1.364       .  A
N61          C62   1.367       .  A
N61         C277   1.366   1_545  A
C62         C107   1.485       .  S
C62          N63   1.359       .  A
C64         C191   1.470       .  S
C64          N65   1.355       .  A
C64         N286   1.356       .  A
N65          C66   1.358       .  A
C66          C79   1.487       .  S
C66          N67   1.368       .  A
N67         C285   1.368       .  A
C68          C93   1.486       .  S
C68          N69   1.358       .  A
C68         N284   1.366   1_545  A
N69         C281   1.355   1_545  A
C70         C124   1.497       .  S
C70          C71   1.417   1_455  A
C70          C75   1.409       .  A
C71          C82   1.496       .  S
C71          C72   1.411       .  A
C72          C73   1.411       .  A
C72          H77   1.083       .  S
C73          C96   1.499       .  S
C73          C74   1.417   1_655  A
C74         C110   1.493       .  S
C74          C75   1.410       .  A
C75          H76   1.084       .  S
C78          C83   1.402       .  A
C78         C513   1.405   1_455  A
C78          H85   1.084       .  S
C79          C80   1.413       .  A
C79         C512   1.406       .  A
C80          C81   1.405       .  A
C80          N87   1.432       .  S
C81         C516   1.408       .  A
C81          H86   1.083       .  S
C82          C83   1.414   1_655  A
C82         C515   1.408       .  A
C83          N84   1.433       .  S
N84          H88   1.044       .  S
N84          H89   1.046       .  S
N87          H90   1.046       .  S
N87          H91   1.044       .  S
C92          C97   1.408       .  A
C92         C527   1.405   1_455  A
C92          H99   1.084       .  S
C93          C94   1.410       .  A
C93         C526   1.406       .  A
C94          C95   1.409       .  A
C94         N101   1.437       .  S
C95         C530   1.408       .  A
C95         H100   1.082       .  S
C96          C97   1.411   1_655  A
C96         C529   1.409       .  A
C97          N98   1.438       .  S
N98         H102   1.046       .  S
N98         H103   1.046       .  S
N101        H104   1.046       .  S
N101        H105   1.045       .  S
C106        C107   1.404       .  A
C106        C111   1.404       .  A
C106        H113   1.084       .  S
C107        C542   1.418       .  A
C108        C109   1.410       .  A
C108        C541   1.411       .  A
C108        N115   1.437       .  S
C109        C110   1.408       .  A
C109        H114   1.083       .  S
C110        C545   1.407   1_455  A
C111        C544   1.419       .  A
C111        N112   1.439       .  S
N112        H116   1.046       .  S
N112        H117   1.042       .  S
N115        H118   1.046       .  S
N115        H119   1.045       .  S
C120        C121   1.405       .  A
C120        C125   1.401       .  A
C120        H127   1.084       .  S
C121        C556   1.414       .  A
C122        C123   1.405       .  A
C122        C555   1.413       .  A
C122        N129   1.432       .  S
C123        C124   1.408       .  A
C123        H128   1.083       .  S
C124        C559   1.414   1_455  A
C125        C558   1.415       .  A
C125        N126   1.433       .  S
N126        H130   1.044       .  S
N126        H131   1.045       .  S
N129        H132   1.046       .  S
N129        H133   1.045       .  S
C134        C135   1.404       .  A
C134        C139   1.397       .  A
C134        H141   1.084       .  S
C135        C136   1.399   1_556  A
C136        C137   1.399       .  A
C136        N143   1.432       .  S
C137        C138   1.413       .  A
C137        H142   1.083       .  S
C138        C139   1.418   1_554  A
C139        N140   1.432       .  S
N140        H144   1.045       .  S
N140        H145   1.046       .  S
N143        H146   1.045       .  S
N143        H147   1.046       .  S
C148        C149   1.411   1_554  A
C148        C153   1.390       .  A
C148        H155   1.084       .  S
C149        C150   1.416       .  A
C150        C151   1.408       .  A
C150        N157   1.437       .  S
C151        C152   1.404       .  A
C151        H156   1.084       .  S
C152        C153   1.404   1_556  A
C153        N154   1.433       .  S
N154        H158   1.045       .  S
N154        H159   1.045       .  S
N157        H160   1.045       .  S
N157        H161   1.046       .  S
C162        C163   1.408       .  A
C162        C167   1.399       .  A
C162        H169   1.084       .  S
C163        C164   1.410   1_554  A
C164        C165   1.400       .  A
C164        N171   1.432       .  S
C165        C166   1.403       .  A
C165        H170   1.084       .  S
C166        C167   1.413   1_556  A
C167        N168   1.438       .  S
N168        H172   1.046       .  S
N168        H173   1.043       .  S
N171        H174   1.046       .  S
N171        H175   1.046       .  S
C176        C177   1.394   1_554  A
C176        C181   1.398       .  A
C176        H183   1.084       .  S
C177        C178   1.413       .  A
C178        C179   1.404       .  A
C178        N185   1.438       .  S
C179        C180   1.403       .  A
C179        H184   1.083       .  S
C180        C181   1.423   1_556  A
C181        N182   1.434       .  S
N182        H186   1.045       .  S
N182        H187   1.046       .  S
N185        H188   1.046       .  S
N185        H189   1.045       .  S
C190        C195   1.404       .  A
C190        C625   1.401       .  A
C190        H197   1.084       .  S
C191        C624   1.401       .  A
C191        C409   1.416       .  A
C192        C193   1.400       .  A
C192        C408   1.416   1_545  A
C192        N199   1.440       .  S
C193        C411   1.404   1_545  A
C193        H198   1.084       .  S
C194        C410   1.406       .  A
C194        C629   1.412       .  A
C195        C628   1.413       .  A
C195        N196   1.432       .  S
N196        H200   1.045       .  S
N196        H201   1.046       .  S
N199        H202   1.043       .  S
N199        H203   1.046   1_545  S
C204        C209   1.403       .  A
C204        C639   1.407   1_455  A
C204        H211   1.083       .  S
C205        C638   1.409       .  A
C205        C423   1.414   1_545  A
C206        C207   1.401       .  A
C206        C422   1.414       .  A
C206        N213   1.433       .  S
C207        C425   1.406       .  A
C207        H212   1.084       .  S
C208        C454   1.489       .  S
C208        C424   1.405   1_545  A
C208        C643   1.413       .  A
C209        C642   1.414   1_455  A
C209        N210   1.433       .  S
N210        H214   1.045   1_455  S
N210        H215   1.046       .  S
N213        H216   1.046       .  S
N213        H217   1.046       .  S
Zn218       O223   2.047   1_655  S
Zn218       O227   2.008       .  S
Zn218       O668   2.058       .  S
Zn219       O226   1.953       .  S
Zn219       O230   2.014       .  S
Zn220       O225   2.016       .  S
Zn220       O228   2.036       .  S
Zn220       O665   2.033   1_455  S
Zn220       O222   1.959   1_456  S
Zn221       O232   2.015       .  S
Zn221       O233   1.955       .  S
Zn221       O439   1.921       .  S
O222       Zn438   1.925       .  S
O223        C235   1.277       .  A
O224        C236   1.268       .  A
O225        C237   1.271   1_455  A
O226        C235   1.268   1_554  A
O228        C236   1.277   1_556  A
O229        C238   1.266       .  A
O230        C673   1.271       .  A
O231       Zn654   2.038       .  S
O231        C238   1.276   1_556  A
O232        C239   1.272       .  A
O233        C240   1.266   1_554  A
O234       Zn652   2.046       .  S
O234        C240   1.278       .  A
C235        C366   1.488       .  S
C236        C380   1.480       .  S
C237        C859   1.490   1_655  S
C238        C355   1.484       .  S
C239        O664   1.269       .  A
C239        C411   1.482       .  S
C240        C397   1.486       .  S
N241        C246   1.347   1_556  A
N241        C245   1.348       .  A
N241        H273   1.042       .  S
N242        C249   1.348       .  A
N242        C250   1.345       .  A
N243        C248   1.352       .  A
N243        C247   1.350       .  A
N243        H274   1.041       .  S
N244        C251   1.346       .  A
N244        C252   1.345       .  A
C245        C253   1.388   1_556  A
C245        C261   1.406       .  A
C246        C262   1.402   1_554  A
C246        C254   1.386       .  A
C247        C255   1.390   1_556  A
C247        C264   1.413       .  A
C248        C263   1.408       .  A
C248        C256   1.385   1_556  A
C249        C261   1.409       .  A
C249        C257   1.385       .  A
C250        C264   1.409       .  A
C250        C258   1.386       .  A
C251        C259   1.385       .  A
C251        C262   1.406       .  A
C252        C260   1.386       .  A
C252        C263   1.406       .  A
C253        C254   1.368       .  A
C253        H265   1.082       .  S
C254        H266   1.083       .  S
C255        C256   1.368       .  A
C255        H267   1.082       .  S
C256        H268   1.082       .  S
C257        C258   1.383       .  A
C257        H269   1.082       .  S
C258        H270   1.082       .  S
C259        C260   1.383       .  A
C259        H271   1.082       .  S
C260        H272   1.082       .  S
C261        C394   1.482       .  S
C262        C352   1.475       .  S
C263        C383   1.479       .  S
C264        C369   1.478       .  S
C275        C422   1.491       .  S
C275        N280   1.356       .  A
N276        C277   1.356       .  A
C277        C338   1.488       .  S
N278        C279   1.365       .  A
C279        C324   1.481       .  S
C279        N280   1.356       .  A
C281        C408   1.469       .  S
C281        N282   1.354       .  A
N282        C283   1.357       .  A
C283        C296   1.485       .  S
C283        N284   1.366       .  A
C285        C310   1.490       .  S
C285        N286   1.358       .  A
C287        C341   1.496       .  S
C287        C288   1.418       .  A
C287        C292   1.411       .  A
C288        C299   1.499       .  S
C288        C289   1.411       .  A
C289        C290   1.411       .  A
C289        H294   1.083   1_455  S
C290        C313   1.497       .  S
C290        C291   1.416       .  A
C291        C327   1.497       .  S
C291        C292   1.409       .  A
C292        H293   1.084       .  S
C295        C730   1.406   1_455  A
C295        C300   1.404       .  A
C295        H302   1.084       .  S
C296        C729   1.405       .  A
C296        C297   1.414       .  A
C297        C298   1.403       .  A
C297        N304   1.432       .  S
C298        C733   1.408       .  A
C298        H303   1.083       .  S
C299        C732   1.408   1_455  A
C299        C300   1.415       .  A
C300        N301   1.433       .  S
N301        H305   1.044       .  S
N301        H306   1.045       .  S
N304        H307   1.045       .  S
N304        H308   1.045       .  S
C309        C744   1.406   1_455  A
C309        C314   1.409       .  A
C309        H316   1.084       .  S
C310        C743   1.407       .  A
C310        C311   1.410       .  A
C311        C312   1.412       .  A
C311        N318   1.437       .  S
C312        C747   1.410       .  A
C312        H317   1.082       .  S
C313        C746   1.408   1_455  A
C313        C314   1.411       .  A
C314        N315   1.438       .  S
N315        H319   1.045       .  S
N315        H320   1.046       .  S
N318        H321   1.045       .  S
N318        H322   1.046       .  S
C323        C324   1.404       .  A
C323        C328   1.402       .  A
C323        H330   1.084       .  S
C324        C759   1.417       .  A
C325        C758   1.417       .  A
C325        C326   1.407       .  A
C325        N332   1.439       .  S
C326        C327   1.408       .  A
C326        H331   1.084       .  S
C327        C762   1.418   1_455  A
C328        C761   1.418       .  A
C328        N329   1.439       .  S
N329        H333   1.045       .  S
N329        H334   1.042       .  S
N332        H335   1.042       .  S
N332        H336   1.047       .  S
C337        C338   1.406       .  A
C337        C342   1.403       .  A
C337        H344   1.084       .  S
C338        C773   1.414       .  A
C339        C772   1.413       .  A
C339        C340   1.405       .  A
C339        N346   1.432       .  S
C340        C341   1.408       .  A
C340        H345   1.084       .  S
C341        C776   1.414   1_455  A
C342        C775   1.415       .  A
C342        N343   1.433       .  S
N343        H347   1.044       .  S
N343        H348   1.045       .  S
N346        H349   1.045       .  S
N346        H350   1.045       .  S
C351        C352   1.404       .  A
C351        C356   1.396       .  A
C351        H358   1.084       .  S
C352        C353   1.399   1_556  A
C353        C354   1.398       .  A
C353        N360   1.432       .  S
C354        C355   1.414       .  A
C354        H359   1.084       .  S
C355        C356   1.417   1_554  A
C356        N357   1.432       .  S
N357        H361   1.045       .  S
N357        H362   1.045       .  S
N360        H363   1.045       .  S
N360        H364   1.046       .  S
C365        C366   1.412   1_554  A
C365        C370   1.392       .  A
C365        H372   1.083       .  S
C366        C367   1.416       .  A
C367        C368   1.408       .  A
C367        N374   1.437       .  S
C368        C369   1.404       .  A
C368        H373   1.084       .  S
C369        C370   1.406   1_556  A
C370        N371   1.434       .  S
N371        H375   1.045       .  S
N371        H376   1.045       .  S
N374        H377   1.045       .  S
N374        H378   1.046       .  S
C379        C380   1.407       .  A
C379        C384   1.401       .  A
C379        H386   1.084       .  S
C380        C381   1.410   1_554  A
C381        C382   1.400       .  A
C381        N388   1.433       .  S
C382        C383   1.402       .  A
C382        H387   1.084       .  S
C383        C384   1.414   1_556  A
C384        N385   1.438       .  S
N385        H389   1.046       .  S
N385        H390   1.043       .  S
N388        H391   1.046       .  S
N388        H392   1.045       .  S
C393        C394   1.394       .  A
C393        C398   1.397   1_556  A
C393        H400   1.084   1_556  S
C394        C395   1.414       .  A
C395        C396   1.406       .  A
C395        N402   1.438       .  S
C396        C397   1.404       .  A
C396        H401   1.083       .  S
C397        C398   1.422   1_556  A
C398        N399   1.434       .  S
N399        H403   1.045       .  S
N399        H404   1.046       .  S
N402        H405   1.045       .  S
N402        H406   1.046       .  S
C407        C842   1.403       .  A
C407        C412   1.404       .  A
C407        H414   1.084       .  S
C408        C841   1.400       .  A
C409        C410   1.401       .  A
C409        N416   1.440       .  S
C410        H415   1.084       .  S
C411        C846   1.413       .  A
C412        C845   1.410       .  A
C412        N413   1.432       .  S
N413        H417   1.046       .  S
N413        H418   1.046       .  S
N416        H419   1.043       .  S
N416        H420   1.046       .  S
C421        C856   1.408       .  A
C421        C426   1.405       .  A
C421        H428   1.083       .  S
C422        C855   1.408       .  A
C423        C424   1.399       .  A
C423        N430   1.433       .  S
C424        H429   1.084       .  S
C425        C671   1.488       .  S
C425        C860   1.413       .  A
C426        C859   1.414       .  A
C426        N427   1.433       .  S
N427        H431   1.046   1_455  S
N427        H432   1.046       .  S
N430        H433   1.046       .  S
N430        H434   1.046       .  S
Zn435       O440   2.047       .  S
Zn435       O444   2.001       .  S
Zn435       O656   1.965   1_556  S
Zn436       O658   1.974       .  S
Zn436       O443   1.956       .  S
Zn436       O447   2.022       .  S
Zn436       O656   1.928       .  S
Zn437       O442   2.026       .  S
Zn437       O445   2.030       .  S
Zn437       O439   1.961   1_546  S
Zn438       O663   1.960       .  S
Zn438       O449   2.011       .  S
Zn438       O450   1.959       .  S
O439       Zn652   1.960   1_554  S
O439       Zn653   1.923       .  S
O440        C452   1.278       .  A
O441       Zn653   1.960   1_545  S
O441        C453   1.267       .  A
O442        C454   1.272       .  A
O443        C452   1.268   1_554  A
O444        C671   1.271       .  A
O445        C453   1.277   1_556  A
O446       Zn655   1.951   1_545  S
O446        C455   1.266       .  A
O448        C455   1.277   1_556  A
O449        C456   1.272   1_655  A
O450        C457   1.266   1_554  A
O451        C457   1.279       .  A
C452        C583   1.485       .  S
C453        C597   1.479       .  S
C454        O661   1.271   1_545  A
C455        C572   1.487       .  S
C456        C628   1.486       .  S
C457        C614   1.490       .  S
N458        C463   1.349   1_556  A
N458        C462   1.348       .  A
N458        H490   1.042       .  S
N459        C466   1.347       .  A
N459        C467   1.346       .  A
N460        C465   1.351       .  A
N460        C464   1.351       .  A
N460        H491   1.041       .  S
N461        C468   1.347       .  A
N461        C469   1.345       .  A
C462        C470   1.387   1_556  A
C462        C478   1.405       .  A
C463        C479   1.404   1_554  A
C463        C471   1.386       .  A
C464        C472   1.388   1_556  A
C464        C481   1.410       .  A
C465        C480   1.410       .  A
C465        C473   1.388   1_556  A
C466        C478   1.408       .  A
C466        C474   1.385       .  A
C467        C481   1.408       .  A
C467        C475   1.386       .  A
C468        C476   1.385       .  A
C468        C479   1.406       .  A
C469        C477   1.386       .  A
C469        C480   1.406       .  A
C470        C471   1.368       .  A
C470        H482   1.082       .  S
C471        H483   1.082       .  S
C472        C473   1.366       .  A
C472        H484   1.082       .  S
C473        H485   1.082       .  S
C474        C475   1.383       .  A
C474        H486   1.082       .  S
C475        H487   1.082       .  S
C476        C477   1.383       .  A
C476        H488   1.082       .  S
C477        H489   1.082       .  S
C478        C611   1.480       .  S
C479        C569   1.478       .  S
C480        C600   1.475       .  S
C481        C586   1.479       .  S
C492        C639   1.491       .  S
C492        N710   1.356   1_645  A
C492        N497   1.357   1_655  A
N493        C709   1.356       .  A
N493        C494   1.356       .  A
C494        C555   1.488       .  S
C494        N712   1.366       .  A
N495        C711   1.365   1_545  A
N495        C496   1.366       .  A
C496        C541   1.484       .  S
C496        N497   1.357       .  A
C498        C625   1.471       .  S
C498        N499   1.355       .  A
C498        N720   1.355       .  A
N499        C500   1.358   1_455  A
C500        C513   1.485       .  S
C500        N501   1.366       .  A
N501        C719   1.366       .  A
C502        C527   1.486       .  S
C502        N718   1.366   1_545  A
C502        N503   1.357       .  A
N503        C715   1.356   1_645  A
C504        C558   1.496       .  S
C504        C505   1.418       .  A
C504        C509   1.410       .  A
C505        C516   1.498       .  S
C505        C506   1.410       .  A
C506        C507   1.412       .  A
C506        H511   1.083       .  S
C507        C530   1.499       .  S
C507        C508   1.418       .  A
C508        C544   1.496       .  S
C508        C509   1.409       .  A
C509        H510   1.083       .  S
C512        C517   1.403       .  A
C512        H519   1.084       .  S
C513        C514   1.413       .  A
C514        C515   1.404       .  A
C514        N521   1.432       .  S
C515        H520   1.083       .  S
C516        C517   1.415       .  A
C517        N518   1.433       .  S
N518        H522   1.044       .  S
N518        H523   1.045       .  S
N521        H524   1.045       .  S
N521        H525   1.045       .  S
C526        C531   1.408       .  A
C526        H533   1.084       .  S
C527        C528   1.410       .  A
C528        C529   1.412       .  A
C528        N535   1.437       .  S
C529        H534   1.083       .  S
C530        C531   1.412       .  A
C531        N532   1.438       .  S
N532        H536   1.046       .  S
N532        H537   1.045       .  S
N535        H538   1.046       .  S
N535        H539   1.045       .  S
C540        C541   1.406   1_655  A
C540        C545   1.404       .  A
C540        H547   1.084       .  S
C542        C543   1.408       .  A
C542        N549   1.439       .  S
C543        C544   1.407       .  A
C543        H548   1.084       .  S
C545        N546   1.432       .  S
N546        H550   1.045       .  S
N546        H551   1.046       .  S
N549        H552   1.041       .  S
N549        H553   1.047       .  S
C554        C555   1.407   1_655  A
C554        C559   1.402       .  A
C554        H561   1.084       .  S
C556        C557   1.404       .  A
C556        N563   1.432       .  S
C557        C558   1.408       .  A
C557        H562   1.083       .  S
C559        N560   1.433       .  S
N560        H564   1.044       .  S
N560        H565   1.046       .  S
N563        H566   1.045       .  S
N563        H567   1.045       .  S
C568        C569   1.404       .  A
C568        C573   1.398       .  A
C568        H575   1.084       .  S
C569        C570   1.400   1_556  A
C570        C571   1.399       .  A
C570        N577   1.432       .  S
C571        C572   1.413       .  A
C571        H576   1.084       .  S
C572        C573   1.418   1_554  A
C573        N574   1.432       .  S
N574        H578   1.045       .  S
N574        H579   1.045       .  S
N577        H580   1.045       .  S
N577        H581   1.046       .  S
C582        C583   1.410   1_554  A
C582        C587   1.393       .  A
C582        H589   1.084       .  S
C583        C584   1.416       .  A
C584        C585   1.408       .  A
C584        N591   1.437       .  S
C585        C586   1.403       .  A
C585        H590   1.084       .  S
C586        C587   1.407   1_556  A
C587        N588   1.433       .  S
N588        H592   1.045       .  S
N588        H593   1.045       .  S
N591        H594   1.045       .  S
N591        H595   1.046       .  S
C596        C597   1.410       .  A
C596        C601   1.396       .  A
C596        H603   1.084       .  S
C597        C598   1.411   1_554  A
C598        C599   1.399       .  A
C598        N605   1.432       .  S
C599        C600   1.401       .  A
C599        H604   1.084       .  S
C600        C601   1.408   1_556  A
C601        N602   1.433       .  S
N602        H606   1.046       .  S
N602        H607   1.045       .  S
N605        H608   1.045       .  S
N605        H609   1.046       .  S
C610        C611   1.394   1_554  A
C610        C615   1.399       .  A
C610        H617   1.084       .  S
C611        C612   1.412       .  A
C612        C613   1.406       .  A
C612        N619   1.438       .  S
C613        C614   1.405       .  A
C613        H618   1.083       .  S
C614        C615   1.423   1_556  A
C615        N616   1.433       .  S
N616        H620   1.046       .  S
N616        H621   1.046       .  S
N619        H622   1.046       .  S
N619        H623   1.045       .  S
C624        C629   1.403       .  A
C624        H631   1.084       .  S
C625        C843   1.416   1_455  A
C626        C842   1.409   1_645  A
C626        C627   1.401       .  A
C626        N633   1.433       .  S
C627        C845   1.404   1_645  A
C627        H632   1.084       .  S
C628        C844   1.406   1_455  A
C629        N630   1.432       .  S
N630        H634   1.046       .  S
N630        H635   1.046       .  S
N633        H636   1.046       .  S
N633        H637   1.046       .  S
C638        C643   1.406       .  A
C638        H645   1.083       .  S
C639        C857   1.414   1_545  A
C640        C856   1.416       .  A
C640        C641   1.401       .  A
C640        N647   1.433       .  S
C641        C859   1.405       .  A
C641        H646   1.084       .  S
C642        C858   1.406   1_545  A
C643        N644   1.432       .  S
N644        H648   1.046       .  S
N644        H649   1.046       .  S
N647        H650   1.045   1_455  S
N647        H651   1.046       .  S
Zn652       O657   2.043       .  S
Zn652       O661   1.993       .  S
Zn653       O660   1.942       .  S
Zn653       O664   1.998       .  S
Zn654       O659   2.011       .  S
Zn654       O662   2.032       .  S
Zn654       O656   1.958   1_556  S
Zn655       O666   2.004       .  S
Zn655       O667   1.948       .  S
O657        C669   1.277       .  A
O658        C670   1.270   1_554  A
O659        C671   1.271       .  A
O660        C669   1.266   1_554  A
O662        C670   1.276       .  A
O663        C672   1.268       .  A
O665        C672   1.276   1_556  A
O666        C673   1.270   1_655  A
O667        C674   1.265       .  A
O668        C674   1.280   1_556  A
C669        C800   1.479       .  S
C670        C814   1.486       .  S
C672        C789   1.488   1_554  S
C673        C845   1.478       .  S
C674        C831   1.487   1_554  S
N675        C680   1.348       .  A
N675        C679   1.348       .  A
N675        H707   1.042       .  S
N676        C683   1.347       .  A
N676        C684   1.345       .  A
N677        C682   1.352       .  A
N677        C681   1.350       .  A
N677        H708   1.041       .  S
N678        C685   1.346       .  A
N678        C686   1.345       .  A
C679        C687   1.386   1_556  A
C679        C695   1.403       .  A
C680        C696   1.405       .  A
C680        C688   1.388   1_556  A
C681        C689   1.388   1_556  A
C681        C698   1.410       .  A
C682        C697   1.411       .  A
C682        C690   1.388   1_556  A
C683        C695   1.406       .  A
C683        C691   1.385       .  A
C684        C698   1.406       .  A
C684        C692   1.387       .  A
C685        C693   1.385       .  A
C685        C696   1.406       .  A
C686        C694   1.386       .  A
C686        C697   1.407       .  A
C687        C688   1.367       .  A
C687        H699   1.082       .  S
C688        H700   1.082       .  S
C689        C690   1.365       .  A
C689        H701   1.082       .  S
C690        H702   1.082       .  S
C691        C692   1.382       .  A
C691        H703   1.082       .  S
C692        H704   1.082       .  S
C693        C694   1.383       .  A
C693        H705   1.082       .  S
C694        H706   1.082       .  S
C695        C828   1.477       .  S
C696        C786   1.476       .  S
C697        C817   1.479       .  S
C698        C803   1.474       .  S
C709        C856   1.493       .  S
C709        N714   1.358       .  A
N710        C711   1.357       .  A
C711        C772   1.486       .  S
N712        C713   1.367       .  A
C713        C758   1.486       .  S
C713        N714   1.359       .  A
C715        C842   1.476       .  S
C715        N716   1.357       .  A
N716        C717   1.359   1_455  A
C717        C730   1.488       .  S
C717        N718   1.367       .  A
C719        C744   1.485       .  S
C719        N720   1.358   1_655  A
C721        C775   1.499       .  S
C721        C722   1.418       .  A
C721        C726   1.408       .  A
C722        C733   1.496       .  S
C722        C723   1.412       .  A
C723        C724   1.411       .  A
C723        H728   1.083       .  S
C724        C747   1.504       .  S
C724        C725   1.417       .  A
C725        C761   1.491       .  S
C725        C726   1.410       .  A
C726        H727   1.084       .  S
C729        C734   1.401       .  A
C729        H736   1.084       .  S
C730        C731   1.414       .  A
C731        C732   1.404       .  A
C731        N738   1.432       .  S
C732        H737   1.083       .  S
C733        C734   1.415       .  A
C734        N735   1.433       .  S
N735        H739   1.044       .  S
N735        H740   1.045       .  S
N738        H741   1.045       .  S
N738        H742   1.045       .  S
C743        C748   1.410       .  A
C743        H750   1.084       .  S
C744        C745   1.410       .  A
C745        C746   1.409       .  A
C745        N752   1.437       .  S
C746        H751   1.083       .  S
C747        C748   1.412       .  A
C748        N749   1.438       .  S
N749        H753   1.046       .  S
N749        H754   1.046       .  S
N752        H755   1.045       .  S
N752        H756   1.046       .  S
C757        C758   1.405   1_655  A
C757        C762   1.404       .  A
C757        H764   1.084       .  S
C759        C760   1.405       .  A
C759        N766   1.439       .  S
C760        C761   1.406       .  A
C760        H765   1.084       .  S
C762        N763   1.439       .  S
N763        H767   1.046       .  S
N763        H768   1.041       .  S
N766        H769   1.041       .  S
N766        H770   1.046       .  S
C771        C772   1.406   1_655  A
C771        C776   1.401       .  A
C771        H778   1.084       .  S
C773        C774   1.406       .  A
C773        N780   1.432       .  S
C774        C775   1.408       .  A
C774        H779   1.084       .  S
C776        N777   1.433       .  S
N777        H781   1.043       .  S
N777        H782   1.046       .  S
N780        H783   1.046       .  S
N780        H784   1.045       .  S
C785        C786   1.403       .  A
C785        C790   1.397       .  A
C785        H792   1.084       .  S
C786        C787   1.399   1_556  A
C787        C788   1.399       .  A
C787        N794   1.432       .  S
C788        C789   1.414   1_554  A
C788        H793   1.083       .  S
C789        C790   1.419       .  A
C790        N791   1.432       .  S
N791        H795   1.045       .  S
N791        H796   1.046       .  S
N794        H797   1.045       .  S
N794        H798   1.046       .  S
C799        C800   1.410   1_554  A
C799        C804   1.392       .  A
C799        H806   1.084       .  S
C800        C801   1.414       .  A
C801        C802   1.405       .  A
C801        N808   1.437       .  S
C802        C803   1.402       .  A
C802        H807   1.084       .  S
C803        C804   1.406   1_556  A
C804        N805   1.433       .  S
N805        H809   1.045       .  S
N805        H810   1.045       .  S
N808        H811   1.045       .  S
N808        H812   1.046       .  S
C813        C814   1.410   1_554  A
C813        C818   1.396       .  A
C813        H820   1.084       .  S
C814        C815   1.413       .  A
C815        C816   1.402       .  A
C815        N822   1.432       .  S
C816        C817   1.403       .  A
C816        H821   1.084       .  S
C817        C818   1.409   1_556  A
C818        N819   1.433       .  S
N819        H823   1.045       .  S
N819        H824   1.045       .  S
N822        H825   1.046       .  S
N822        H826   1.046       .  S
C827        C828   1.394   1_554  A
C827        C832   1.398       .  A
C827        H834   1.084       .  S
C828        C829   1.411       .  A
C829        C830   1.406       .  A
C829        N836   1.438       .  S
C830        C831   1.405       .  A
C830        H835   1.083       .  S
C831        C832   1.422   1_556  A
C832        N833   1.433       .  S
N833        H837   1.045       .  S
N833        H838   1.046       .  S
N836        H839   1.046       .  S
N836        H840   1.046       .  S
C841        C846   1.402       .  A
C841        H848   1.084       .  S
C843        C844   1.401       .  A
C843        N850   1.440       .  S
C844        H849   1.084       .  S
C846        N847   1.433       .  S
N847        H851   1.046       .  S
N847        H852   1.045       .  S
N850        H853   1.042       .  S
N850        H854   1.046       .  S
C855        C860   1.403       .  A
C855        H862   1.083       .  S
C857        C858   1.402       .  A
C857        N864   1.433       .  S
C858        H863   1.083       .  S
C860        N861   1.433       .  S
N861        H865   1.046       .  S
N861        H866   1.046       .  S
N864        H867   1.046       .  S
N864        H868   1.046   1_655  S
