geometry optimzed in LAMMPS
_audit_creation_date              2020-11-30 
_audit_creation_method            'lammps2cif' 
_symmetry_space_group_name_H-M    'P1' 
_symmetry_Int_Tables_number       1 
_symmetry_cell_setting            triclinic 
loop_ 
_symmetry_equiv_pos_as_xyz 
  x,y,z 
_cell_length_a                    40.40659514934172 
_cell_length_b                    40.38686960381317 
_cell_length_c                    32.36107871215908 
_cell_angle_alpha                 89.98947224799835 
_cell_angle_beta                  89.99367646005882 
_cell_angle_gamma                 119.82667047045427 
loop_ 
_atom_site_label 
_atom_site_type_symbol 
_atom_site_fract_x 
_atom_site_fract_y 
_atom_site_fract_z 
_atom_site_charge 
C1          C  0.18733052  0.09106829  0.97719145     0.02310
C2          C  0.20739112  0.07104120  0.97556016    -0.13840
C3          C  0.24745243  0.09070804  0.97540796    -0.00190
C4          C  0.26723196  0.13078653  0.97576226    -0.12360
C5          C  0.24739655  0.15101011  0.97739008     0.02310
C6          C  0.20744321  0.13103989  0.97949607    -0.11780
H7          H  0.19169748  0.04025340  0.97247077     0.07900
H8          H  0.29801316  0.14641010  0.97285430     0.05430
H9          H  0.19201646  0.14661576  0.97771024     0.05280
C10         C  0.18717171  0.09084151  0.35841019     0.02310
C11         C  0.20728348  0.13081587  0.35613609    -0.13840
C12         C  0.24723452  0.15078734  0.35827828    -0.00190
C13         C  0.26707171  0.13056537  0.35991087    -0.12360
C14         C  0.24729511  0.09048642  0.36023482     0.02310
C15         C  0.20723427  0.07081655  0.36004603    -0.11780
H16         H  0.19185194  0.14638692  0.35791926     0.07900
H17         H  0.29784951  0.14618806  0.36284487     0.05430
H18         H  0.19153975  0.04002535  0.36311452     0.05280
C19         C  0.15586522  0.24345086  0.85861224     0.02310
C20         C  0.13579128  0.26346994  0.86011264    -0.13840
C21         C  0.09572320  0.24379689  0.86015605    -0.00190
C22         C  0.07595034  0.20371299  0.85978589    -0.12360
C23         C  0.09579964  0.18349209  0.85828884     0.02310
C24         C  0.13576072  0.20347771  0.85629689    -0.11760
H25         H  0.15147562  0.29425623  0.86321234     0.07900
H26         H  0.04516436  0.18808651  0.86262324     0.05430
H27         H  0.15119055  0.18790885  0.85817242     0.05280
C28         C  0.15566026  0.24316704  0.47705693     0.02310
C29         C  0.13555770  0.20319234  0.47936131    -0.13840
C30         C  0.09559783  0.18320456  0.47735388    -0.00190
C31         C  0.07574499  0.20342247  0.47585512    -0.12360
C32         C  0.09551482  0.24350644  0.47549463     0.02310
C33         C  0.13558303  0.26318251  0.47555208    -0.11780
H34         H  0.15099200  0.18762800  0.47748747     0.07900
H35         H  0.04496115  0.18779584  0.47300674     0.05430
H36         H  0.15126725  0.29397104  0.47245935     0.05280
N37         N  0.31839851  0.32194051  0.01892595    -0.06930
N38         N  0.31114445  0.30695274  0.05639387    -0.59050
N39         N  0.31342877  0.05760495  0.96688813    -0.06610
N40         N  0.30703750  0.08655130  0.96972824    -0.61180
N41         N  0.28106987  0.02505154  0.96721393    -0.06210
N42         N  0.25194713  0.03116602  0.97023531    -0.59030
N43         N  0.01722195  0.02146204  0.01875516    -0.05890
N44         N  0.03226959  0.02957926  0.05613091    -0.61530
C45         C  0.00783267  0.33249587  0.07903921     0.95240
C46         C  0.26856576  0.06966801  0.97176378     0.95020
N47         N  0.06364719  0.08598141  0.87507348    -0.07120
N48         N  0.07965629  0.11548362  0.84958221    -0.59630
N49         N  0.09015759  0.05984252  0.96007905    -0.05240
N50         N  0.11953286  0.07547093  0.98571482    -0.60880
N51         N  0.09943156  0.04831830  0.92619805    -0.07150
N52         N  0.13478914  0.05504192  0.92843850    -0.59900
N53         N  0.05212610  0.09528588  0.90893373    -0.04880
N54         N  0.05923850  0.13080350  0.90680362    -0.60970
Mn55       Mn  0.03525726  0.05923467  0.96434062     1.18440
C56         C  0.07586292  0.14290196  0.86950241     0.97330
C57         C  0.14682431  0.07144224  0.96583816     0.97990
N58         N  0.24373349  0.28617813  0.90974928    -0.07170
N59         N  0.20836656  0.27944140  0.90748382    -0.63480
N60         N  0.29112644  0.23926923  0.92690986    -0.05970
N61         N  0.28397737  0.20374010  0.92895668    -0.64150
N62         N  0.27961515  0.24854417  0.96079669    -0.06670
N63         N  0.26356703  0.21900401  0.98622955    -0.63740
N64         N  0.25302746  0.27469170  0.87586549    -0.05570
N65         N  0.22368208  0.25909283  0.85018955    -0.64430
Mn66       Mn  0.28003120  0.30337567  0.96491563     1.10660
C67         C  0.19636347  0.26308220  0.87005103     0.98550
C68         C  0.26733520  0.19160187  0.96623988     0.98620
N69         N  0.06215053  0.30948029  0.86862548    -0.06680
N70         N  0.09125166  0.30334506  0.86547413    -0.62060
N71         N  0.32581822  0.31331365  0.81743595    -0.06000
N72         N  0.31005064  0.30579203  0.78043721    -0.58790
N73         N  0.02484874  0.01257160  0.81706081    -0.07310
N74         N  0.03165281  0.02779261  0.77973402    -0.61620
N75         N  0.02977121  0.27694841  0.86889432    -0.06300
N76         N  0.03613596  0.24798834  0.86590388    -0.58810
Mn77       Mn  0.06322150  0.03114379  0.87099773     1.20190
Mn78       Mn  0.30793051  0.27536954  0.87159514     1.10090
Cl79       Cl  0.00495122  0.00060880  0.91797825    -0.86780
C80         C  0.07460905  0.26484635  0.86382347     0.95550
C81         C  0.33456225  0.00262231  0.75717041     0.95350
N82         N  0.09925248  0.04804887  0.40939674    -0.06930
N83         N  0.13460903  0.05477092  0.40714833    -0.59050
N84         N  0.05195793  0.09503301  0.42669091    -0.06610
N85         N  0.05905685  0.13054494  0.42883252    -0.61180
N86         N  0.06348195  0.08571399  0.46053857    -0.06210
N87         N  0.07947670  0.11519840  0.48603580    -0.59030
N88         N  0.08999155  0.05960239  0.37552675    -0.05890
N89         N  0.11937620  0.07524939  0.34988863    -0.61530
C90         C  0.14665869  0.07120063  0.36975381     0.95240
C91         C  0.07567452  0.14262278  0.46613041     0.95020
N92         N  0.28090663  0.02482496  0.36844349    -0.07120
N93         N  0.25178588  0.03094182  0.36542092    -0.59630
N94         N  0.01706947  0.02125556  0.31689215    -0.05240
N95         N  0.03213384  0.02940236  0.27951891    -0.60880
N96         N  0.31824449  0.32173555  0.31671694    -0.07150
N97         N  0.31100390  0.30678085  0.27924046    -0.59900
N98         N  0.31326626  0.05737753  0.36876369    -0.04880
N99         N  0.30687724  0.08632578  0.36591860    -0.60970
Mn100      Mn  0.03509337  0.05900260  0.37129362     1.18440
C101        C  0.26840629  0.06944445  0.36388604     0.97330
C102        C  0.00770571  0.33234259  0.25660071     0.97990
N103        N  0.02468732  0.01231872  0.51855179    -0.07170
N104        N  0.03151813  0.02758233  0.55584517    -0.63480
N105        N  0.02957235  0.27667197  0.46676222    -0.05970
N106        N  0.03592996  0.24770689  0.46976626    -0.64150
N107        N  0.06195592  0.30919974  0.46699687    -0.06670
N108        N  0.09105209  0.30305724  0.47014159    -0.63740
N109        N  0.32565037  0.31306670  0.51823576    -0.05570
N110        N  0.30990668  0.30558880  0.55525802    -0.64430
Mn111      Mn  0.06304436  0.03087121  0.46460701     1.10660
C112        C  0.33444343  0.00244727  0.57846338     0.98550
C113        C  0.07440326  0.26455858  0.47182150     0.98620
N114        N  0.27944159  0.24831224  0.37488147    -0.06680
N115        N  0.26340683  0.21878542  0.34944812    -0.62060
N116        N  0.25283948  0.27444317  0.45981817    -0.06000
N117        N  0.22348075  0.25882577  0.48549157    -0.58790
N118        N  0.24355486  0.28593425  0.42592747    -0.07310
N119        N  0.20818299  0.27918503  0.42818862    -0.61620
N120        N  0.29093042  0.23901862  0.40877441    -0.06300
N121        N  0.28377951  0.20348894  0.40672890    -0.58810
Mn122      Mn  0.27986383  0.30314711  0.37074718     1.20190
Mn123      Mn  0.30773859  0.27511073  0.46408462     1.10090
Cl124      Cl  0.00477441  0.00035860  0.41766666    -0.86780
C125        C  0.26715891  0.19137101  0.36944209     0.95550
C126        C  0.19616525  0.26281163  0.46562325     0.95350
C127        C  0.30367170  0.30624013  0.64627607     0.22780
C128        C  0.33154448  0.00449760  0.62403973    -0.25330
C129        C  0.02484620  0.03693395  0.64613515     0.17690
C130        C  0.02487982  0.03697713  0.68939267     0.22720
C131        C  0.33161039  0.00458725  0.71159039    -0.25270
C132        C  0.30370300  0.30628434  0.68945475     0.17620
F133        F  0.27718247  0.27449827  0.70938379    -0.15230
F134        F  0.27712680  0.27441487  0.62644656    -0.17590
F135        F  0.05161216  0.06855165  0.70941562    -0.17590
F136        F  0.05154699  0.06847195  0.62601141    -0.15230
C137        C  0.00034583  0.02401719  0.18940663     0.22780
C138        C  0.00839835  0.33216084  0.21124149    -0.25330
C139        C  0.01638454  0.30686949  0.18948463     0.17690
C140        C  0.01642848  0.30691673  0.14613110     0.22720
C141        C  0.00849102  0.33225867  0.12439811    -0.25270
C142        C  0.00039133  0.02406543  0.14625655     0.17620
F143        F  0.32495822  0.04802847  0.12571182    -0.15230
F144        F  0.32487688  0.04793997  0.20997300    -0.17590
F145        F  0.02472902  0.28274424  0.12537877    -0.17590
F146        F  0.02465131  0.28265799  0.21021432    -0.15230
C147        C  0.18733052  0.42440161  0.97719144     0.02310
C148        C  0.20739111  0.40437453  0.97556015    -0.13840
C149        C  0.24745242  0.42404137  0.97540796    -0.00190
C150        C  0.26723195  0.46411986  0.97576226    -0.12360
C151        C  0.24739655  0.48434344  0.97739007     0.02310
C152        C  0.20744321  0.46437322  0.97949606    -0.11780
H153        H  0.19169748  0.37358673  0.97247076     0.07900
H154        H  0.29801315  0.47974343  0.97285430     0.05430
H155        H  0.19201645  0.47994908  0.97771023     0.05280
C156        C  0.18717171  0.42417484  0.35841020     0.02310
C157        C  0.20728348  0.46414920  0.35613609    -0.13840
C158        C  0.24723452  0.48412067  0.35827828    -0.00190
C159        C  0.26707171  0.46389870  0.35991087    -0.12360
C160        C  0.24729511  0.42381975  0.36023482     0.02310
C161        C  0.20723427  0.40414988  0.36004604    -0.11780
H162        H  0.19185194  0.47972025  0.35791927     0.07900
H163        H  0.29784951  0.47952139  0.36284487     0.05430
H164        H  0.19153975  0.37335868  0.36311452     0.05280
C165        C  0.15586522  0.57678419  0.85861223     0.02310
C166        C  0.13579128  0.59680327  0.86011263    -0.13840
C167        C  0.09572320  0.57713022  0.86015604    -0.00190
C168        C  0.07595034  0.53704632  0.85978589    -0.12360
C169        C  0.09579963  0.51682542  0.85828883     0.02310
C170        C  0.13576071  0.53681104  0.85629688    -0.11760
H171        H  0.15147561  0.62758956  0.86321233     0.07900
H172        H  0.04516435  0.52141985  0.86262324     0.05430
H173        H  0.15119055  0.52124218  0.85817241     0.05280
C174        C  0.15566026  0.57650037  0.47705693     0.02310
C175        C  0.13555770  0.53652567  0.47936131    -0.13840
C176        C  0.09559783  0.51653790  0.47735388    -0.00190
C177        C  0.07574499  0.53675580  0.47585512    -0.12360
C178        C  0.09551482  0.57683977  0.47549463     0.02310
C179        C  0.13558303  0.59651585  0.47555208    -0.11780
H180        H  0.15099199  0.52096133  0.47748748     0.07900
H181        H  0.04496115  0.52112918  0.47300674     0.05430
H182        H  0.15126725  0.62730437  0.47245935     0.05280
N183        N  0.31839850  0.65527384  0.01892595    -0.06930
N184        N  0.31114443  0.64028607  0.05639387    -0.59050
N185        N  0.31342877  0.39093829  0.96688813    -0.06610
N186        N  0.30703750  0.41988463  0.96972823    -0.61180
N187        N  0.28106987  0.35838487  0.96721393    -0.06210
N188        N  0.25194713  0.36449935  0.97023530    -0.59030
N189        N  0.01722194  0.35479537  0.01875516    -0.05890
N190        N  0.03226957  0.36291259  0.05613091    -0.61530
C191        C  0.00783268  0.66582920  0.07903921     0.95240
C192        C  0.26856576  0.40300134  0.97176377     0.95020
N193        N  0.06364719  0.41931474  0.87507347    -0.07120
N194        N  0.07965628  0.44881695  0.84958220    -0.59630
N195        N  0.09015758  0.39317585  0.96007904    -0.05240
N196        N  0.11953286  0.40880425  0.98571481    -0.60880
N197        N  0.09943155  0.38165163  0.92619804    -0.07150
N198        N  0.13478913  0.38837525  0.92843849    -0.59900
N199        N  0.05212609  0.42861921  0.90893372    -0.04880
N200        N  0.05923850  0.46413683  0.90680361    -0.60970
Mn201      Mn  0.03525726  0.39256800  0.96434061     1.18440
C202        C  0.07586291  0.47623529  0.86950240     0.97330
C203        C  0.14682431  0.40477556  0.96583815     0.97990
N204        N  0.24373349  0.61951146  0.90974928    -0.07170
N205        N  0.20836655  0.61277473  0.90748381    -0.63480
N206        N  0.29112643  0.57260256  0.92690985    -0.05970
N207        N  0.28397736  0.53707343  0.92895667    -0.64150
N208        N  0.27961514  0.58187750  0.96079668    -0.06670
N209        N  0.26356703  0.55233734  0.98622954    -0.63740
N210        N  0.25302746  0.60802503  0.87586548    -0.05570
N211        N  0.22368207  0.59242616  0.85018954    -0.64430
Mn212      Mn  0.28003119  0.63670900  0.96491563     1.10660
C213        C  0.19636346  0.59641553  0.87005102     0.98550
C214        C  0.26733520  0.52493520  0.96623987     0.98620
N215        N  0.06215054  0.64281363  0.86862548    -0.06680
N216        N  0.09125166  0.63667839  0.86547413    -0.62060
N217        N  0.32581821  0.64664697  0.81743595    -0.06000
N218        N  0.31005062  0.63912536  0.78043721    -0.58790
N219        N  0.02484873  0.34590493  0.81706080    -0.07310
N220        N  0.03165279  0.36112595  0.77973401    -0.61620
N221        N  0.02977121  0.61028175  0.86889432    -0.06300
N222        N  0.03613596  0.58132168  0.86590388    -0.58810
Mn223      Mn  0.06322149  0.36447712  0.87099772     1.20190
Mn224      Mn  0.30793050  0.60870286  0.87159514     1.10090
Cl225      Cl  0.00495121  0.33394213  0.91797824    -0.86780
C226        C  0.07460905  0.59817968  0.86382347     0.95550
C227        C  0.33456225  0.33595565  0.75717041     0.95350
N228        N  0.09925248  0.38138221  0.40939674    -0.06930
N229        N  0.13460903  0.38810425  0.40714834    -0.59050
N230        N  0.05195793  0.42836634  0.42669091    -0.06610
N231        N  0.05905685  0.46387828  0.42883253    -0.61180
N232        N  0.06348195  0.41904733  0.46053857    -0.06210
N233        N  0.07947670  0.44853174  0.48603580    -0.59030
N234        N  0.08999155  0.39293573  0.37552676    -0.05890
N235        N  0.11937620  0.40858273  0.34988863    -0.61530
C236        C  0.14665869  0.40453396  0.36975382     0.95240
C237        C  0.07567452  0.47595611  0.46613042     0.95020
N238        N  0.28090663  0.35815830  0.36844349    -0.07120
N239        N  0.25178589  0.36427516  0.36542091    -0.59630
N240        N  0.01706946  0.35458889  0.31689215    -0.05240
N241        N  0.03213383  0.36273570  0.27951891    -0.60880
N242        N  0.31824448  0.65506888  0.31671694    -0.07150
N243        N  0.31100389  0.64011418  0.27924046    -0.59900
N244        N  0.31326626  0.39071086  0.36876369    -0.04880
N245        N  0.30687724  0.41965911  0.36591860    -0.60970
Mn246      Mn  0.03509337  0.39233593  0.37129362     1.18440
C247        C  0.26840629  0.40277779  0.36388604     0.97330
C248        C  0.00770571  0.66567592  0.25660071     0.97990
N249        N  0.02468732  0.34565206  0.51855180    -0.07170
N250        N  0.03151812  0.36091567  0.55584517    -0.63480
N251        N  0.02957234  0.61000530  0.46676221    -0.05970
N252        N  0.03592996  0.58104022  0.46976626    -0.64150
N253        N  0.06195592  0.64253307  0.46699686    -0.06670
N254        N  0.09105208  0.63639057  0.47014158    -0.63740
N255        N  0.32565037  0.64640003  0.51823576    -0.05570
N256        N  0.30990667  0.63892213  0.55525802    -0.64430
Mn257      Mn  0.06304436  0.36420454  0.46460702     1.10660
C258        C  0.33444343  0.33578062  0.57846338     0.98550
C259        C  0.07440325  0.59789191  0.47182150     0.98620
N260        N  0.27944159  0.58164557  0.37488147    -0.06680
N261        N  0.26340683  0.55211876  0.34944812    -0.62060
N262        N  0.25283948  0.60777650  0.45981818    -0.06000
N263        N  0.22348075  0.59215910  0.48549157    -0.58790
N264        N  0.24355486  0.61926758  0.42592747    -0.07310
N265        N  0.20818299  0.61251836  0.42818862    -0.61620
N266        N  0.29093042  0.57235195  0.40877441    -0.06300
N267        N  0.28377951  0.53682227  0.40672890    -0.58810
Mn268      Mn  0.27986383  0.63648044  0.37074719     1.20190
Mn269      Mn  0.30773859  0.60844406  0.46408462     1.10090
Cl270      Cl  0.00477441  0.33369193  0.41766667    -0.86780
C271        C  0.26715891  0.52470434  0.36944209     0.95550
C272        C  0.19616525  0.59614496  0.46562325     0.95350
C273        C  0.30367168  0.63957346  0.64627607     0.22780
C274        C  0.33154448  0.33783095  0.62403973    -0.25330
C275        C  0.02484617  0.37026730  0.64613515     0.17690
C276        C  0.02487979  0.37031048  0.68939267     0.22720
C277        C  0.33161039  0.33792059  0.71159039    -0.25270
C278        C  0.30370298  0.63961767  0.68945475     0.17620
F279        F  0.27718246  0.60783159  0.70938378    -0.15230
F280        F  0.27712679  0.60774820  0.62644656    -0.17590
F281        F  0.05161211  0.40188501  0.70941562    -0.17590
F282        F  0.05154694  0.40180531  0.62601141    -0.15230
C283        C  0.00034582  0.35735053  0.18940663     0.22780
C284        C  0.00839835  0.66549417  0.21124149    -0.25330
C285        C  0.01638453  0.64020281  0.18948464     0.17690
C286        C  0.01642847  0.64025005  0.14613110     0.22720
C287        C  0.00849103  0.66559200  0.12439811    -0.25270
C288        C  0.00039132  0.35739877  0.14625655     0.17620
F289        F  0.32495823  0.38136182  0.12571183    -0.15230
F290        F  0.32487690  0.38127331  0.20997301    -0.17590
F291        F  0.02472901  0.61607756  0.12537877    -0.17590
F292        F  0.02465129  0.61599130  0.21021432    -0.15230
C293        C  0.18733052  0.75773495  0.97719145     0.02310
C294        C  0.20739112  0.73770786  0.97556016    -0.13840
C295        C  0.24745243  0.75737471  0.97540796    -0.00190
C296        C  0.26723196  0.79745320  0.97576226    -0.12360
C297        C  0.24739655  0.81767677  0.97739008     0.02310
C298        C  0.20744321  0.79770656  0.97949607    -0.11780
H299        H  0.19169748  0.70692006  0.97247077     0.07900
H300        H  0.29801316  0.81307677  0.97285430     0.05430
H301        H  0.19201646  0.81328242  0.97771024     0.05280
C302        C  0.18717171  0.75750817  0.35841019     0.02310
C303        C  0.20728348  0.79748253  0.35613608    -0.13840
C304        C  0.24723452  0.81745400  0.35827828    -0.00190
C305        C  0.26707171  0.79723203  0.35991086    -0.12360
C306        C  0.24729511  0.75715308  0.36023482     0.02310
C307        C  0.20723426  0.73748321  0.36004604    -0.11780
H308        H  0.19185193  0.81305358  0.35791926     0.07900
H309        H  0.29784950  0.81285472  0.36284487     0.05430
H310        H  0.19153975  0.70669201  0.36311452     0.05280
C311        C  0.15586522  0.91011753  0.85861224     0.02310
C312        C  0.13579128  0.93013661  0.86011264    -0.13840
C313        C  0.09572320  0.91046356  0.86015605    -0.00190
C314        C  0.07595034  0.87037966  0.85978589    -0.12360
C315        C  0.09579964  0.85015876  0.85828884     0.02310
C316        C  0.13576072  0.87014438  0.85629689    -0.11760
H317        H  0.15147562  0.96092290  0.86321234     0.07900
H318        H  0.04516436  0.85475318  0.86262325     0.05430
H319        H  0.15119056  0.85457552  0.85817242     0.05280
C320        C  0.15566026  0.90983370  0.47705693     0.02310
C321        C  0.13555770  0.86985900  0.47936131    -0.13840
C322        C  0.09559782  0.84987123  0.47735388    -0.00190
C323        C  0.07574498  0.87008913  0.47585512    -0.12360
C324        C  0.09551482  0.91017310  0.47549463     0.02310
C325        C  0.13558303  0.92984918  0.47555208    -0.11780
H326        H  0.15099199  0.85429466  0.47748748     0.07900
H327        H  0.04496115  0.85446251  0.47300674     0.05430
H328        H  0.15126725  0.96063770  0.47245935     0.05280
N329        N  0.31839851  0.98860718  0.01892595    -0.06930
N330        N  0.31114445  0.97361940  0.05639387    -0.59050
N331        N  0.31342877  0.72427162  0.96688812    -0.06610
N332        N  0.30703750  0.75321796  0.96972823    -0.61180
N333        N  0.28106987  0.69171820  0.96721392    -0.06210
N334        N  0.25194712  0.69783268  0.97023530    -0.59030
N335        N  0.01722195  0.68812870  0.01875516    -0.05890
N336        N  0.03226958  0.69624592  0.05613091    -0.61530
C337        C  0.00783269  0.99916253  0.07903921     0.95240
C338        C  0.26856575  0.73633467  0.97176377     0.95020
N339        N  0.06364719  0.75264808  0.87507347    -0.07120
N340        N  0.07965629  0.78215029  0.84958220    -0.59630
N341        N  0.09015759  0.72650918  0.96007905    -0.05240
N342        N  0.11953286  0.74213759  0.98571482    -0.60880
N343        N  0.09943156  0.71498497  0.92619804    -0.07150
N344        N  0.13478914  0.72170859  0.92843850    -0.59900
N345        N  0.05212610  0.76195255  0.90893372    -0.04880
N346        N  0.05923851  0.79747017  0.90680362    -0.60970
Mn347      Mn  0.03525726  0.72590134  0.96434062     1.18440
C348        C  0.07586292  0.80956863  0.86950241     0.97330
C349        C  0.14682431  0.73810890  0.96583816     0.97990
N350        N  0.24373349  0.95284480  0.90974928    -0.07170
N351        N  0.20836656  0.94610807  0.90748382    -0.63480
N352        N  0.29112643  0.90593589  0.92690986    -0.05970
N353        N  0.28397737  0.87040677  0.92895668    -0.64150
N354        N  0.27961515  0.91521084  0.96079669    -0.06670
N355        N  0.26356703  0.88567068  0.98622955    -0.63740
N356        N  0.25302746  0.94135837  0.87586549    -0.05570
N357        N  0.22368208  0.92575950  0.85018955    -0.64430
Mn358      Mn  0.28003119  0.97004234  0.96491564     1.10660
C359        C  0.19636347  0.92974887  0.87005103     0.98550
C360        C  0.26733520  0.85826854  0.96623988     0.98620
N361        N  0.06215054  0.97614696  0.86862549    -0.06680
N362        N  0.09125166  0.97001173  0.86547414    -0.62060
N363        N  0.32581822  0.97998031  0.81743595    -0.06000
N364        N  0.31005064  0.97245869  0.78043722    -0.58790
N365        N  0.02484874  0.67923827  0.81706081    -0.07310
N366        N  0.03165280  0.69445929  0.77973402    -0.61620
N367        N  0.02977121  0.94361508  0.86889433    -0.06300
N368        N  0.03613596  0.91465501  0.86590389    -0.58810
Mn369      Mn  0.06322150  0.69781046  0.87099773     1.20190
Mn370      Mn  0.30793051  0.94203620  0.87159514     1.10090
Cl371      Cl  0.00495122  0.66727547  0.91797825    -0.86780
C372        C  0.07460905  0.93151302  0.86382348     0.95550
C373        C  0.33456224  0.66928899  0.75717041     0.95350
N374        N  0.09925248  0.71471554  0.40939674    -0.06930
N375        N  0.13460903  0.72143758  0.40714833    -0.59050
N376        N  0.05195793  0.76169967  0.42669091    -0.06610
N377        N  0.05905685  0.79721161  0.42883252    -0.61180
N378        N  0.06348194  0.75238066  0.46053857    -0.06210
N379        N  0.07947670  0.78186507  0.48603580    -0.59030
N380        N  0.08999155  0.72626906  0.37552675    -0.05890
N381        N  0.11937619  0.74191606  0.34988863    -0.61530
C382        C  0.14665868  0.73786729  0.36975381     0.95240
C383        C  0.07567452  0.80928944  0.46613042     0.95020
N384        N  0.28090663  0.69149163  0.36844349    -0.07120
N385        N  0.25178588  0.69760849  0.36542092    -0.59630
N386        N  0.01706946  0.68792222  0.31689215    -0.05240
N387        N  0.03213383  0.69606903  0.27951891    -0.60880
N388        N  0.31824448  0.98840221  0.31671694    -0.07150
N389        N  0.31100389  0.97344751  0.27924046    -0.59900
N390        N  0.31326626  0.72404419  0.36876370    -0.04880
N391        N  0.30687724  0.75299244  0.36591860    -0.60970
Mn392      Mn  0.03509337  0.72566926  0.37129362     1.18440
C393        C  0.26840629  0.73611112  0.36388604     0.97330
C394        C  0.00770572  0.99900925  0.25660071     0.97990
N395        N  0.02468732  0.67898539  0.51855179    -0.07170
N396        N  0.03151812  0.69424900  0.55584517    -0.63480
N397        N  0.02957234  0.94333863  0.46676221    -0.05970
N398        N  0.03592996  0.91437355  0.46976626    -0.64150
N399        N  0.06195592  0.97586641  0.46699686    -0.06670
N400        N  0.09105208  0.96972391  0.47014158    -0.63740
N401        N  0.32565037  0.97973335  0.51823575    -0.05570
N402        N  0.30990668  0.97225545  0.55525802    -0.64430
Mn403      Mn  0.06304436  0.69753788  0.46460701     1.10660
C404        C  0.33444342  0.66911395  0.57846338     0.98550
C405        C  0.07440325  0.93122524  0.47182149     0.98620
N406        N  0.27944158  0.91497890  0.37488147    -0.06680
N407        N  0.26340682  0.88545209  0.34944812    -0.62060
N408        N  0.25283948  0.94110983  0.45981817    -0.06000
N409        N  0.22348075  0.92549243  0.48549157    -0.58790
N410        N  0.24355485  0.95260091  0.42592747    -0.07310
N411        N  0.20818299  0.94585169  0.42818862    -0.61620
N412        N  0.29093042  0.90568528  0.40877441    -0.06300
N413        N  0.28377950  0.87015560  0.40672890    -0.58810
Mn414      Mn  0.27986383  0.96981377  0.37074718     1.20190
Mn415      Mn  0.30773859  0.94177739  0.46408462     1.10090
Cl416      Cl  0.00477441  0.66702526  0.41766667    -0.86780
C417        C  0.26715891  0.85803767  0.36944209     0.95550
C418        C  0.19616525  0.92947829  0.46562325     0.95350
C419        C  0.30367170  0.97290678  0.64627607     0.22780
C420        C  0.33154445  0.67116429  0.62403973    -0.25330
C421        C  0.02484619  0.70360063  0.64613515     0.17690
C422        C  0.02487982  0.70364381  0.68939267     0.22720
C423        C  0.33161036  0.67125392  0.71159039    -0.25270
C424        C  0.30370300  0.97295099  0.68945475     0.17620
F425        F  0.27718247  0.94116492  0.70938379    -0.15230
F426        F  0.27712680  0.94108153  0.62644657    -0.17590
F427        F  0.05161216  0.73521833  0.70941562    -0.17590
F428        F  0.05154698  0.73513863  0.62601141    -0.15230
C429        C  0.00034583  0.69068387  0.18940662     0.22780
C430        C  0.00839836  0.99882750  0.21124149    -0.25330
C431        C  0.01638456  0.97353615  0.18948463     0.17690
C432        C  0.01642850  0.97358339  0.14613110     0.22720
C433        C  0.00849104  0.99892533  0.12439811    -0.25270
C434        C  0.00039134  0.69073211  0.14625655     0.17620
F435        F  0.32495818  0.71469513  0.12571183    -0.15230
F436        F  0.32487685  0.71460663  0.20997301    -0.17590
F437        F  0.02472904  0.94941091  0.12537877    -0.17590
F438        F  0.02465133  0.94932465  0.21021432    -0.15230
C439        C  0.52066385  0.09106829  0.97719145     0.02310
C440        C  0.54072445  0.07104120  0.97556016    -0.13840
C441        C  0.58078576  0.09070804  0.97540796    -0.00190
C442        C  0.60056529  0.13078653  0.97576226    -0.12360
C443        C  0.58072989  0.15101011  0.97739008     0.02310
C444        C  0.54077655  0.13103989  0.97949606    -0.11780
H445        H  0.52503081  0.04025340  0.97247077     0.07900
H446        H  0.63134649  0.14641010  0.97285429     0.05430
H447        H  0.52534979  0.14661576  0.97771024     0.05280
C448        C  0.52050504  0.09084151  0.35841019     0.02310
C449        C  0.54061681  0.13081587  0.35613608    -0.13840
C450        C  0.58056785  0.15078733  0.35827828    -0.00190
C451        C  0.60040504  0.13056537  0.35991087    -0.12360
C452        C  0.58062844  0.09048641  0.36023482     0.02310
C453        C  0.54056760  0.07081655  0.36004603    -0.11780
H454        H  0.52518527  0.14638692  0.35791926     0.07900
H455        H  0.63118284  0.14618806  0.36284487     0.05430
H456        H  0.52487308  0.04002534  0.36311452     0.05280
C457        C  0.48919856  0.24345086  0.85861224     0.02310
C458        C  0.46912462  0.26346994  0.86011264    -0.13840
C459        C  0.42905654  0.24379690  0.86015605    -0.00190
C460        C  0.40928368  0.20371299  0.85978589    -0.12360
C461        C  0.42913297  0.18349209  0.85828884     0.02310
C462        C  0.46909405  0.20347771  0.85629689    -0.11760
H463        H  0.48480895  0.29425623  0.86321234     0.07900
H464        H  0.37849769  0.18808652  0.86262325     0.05430
H465        H  0.48452389  0.18790885  0.85817242     0.05280
C466        C  0.48899359  0.24316703  0.47705693     0.02310
C467        C  0.46889103  0.20319234  0.47936131    -0.13840
C468        C  0.42893116  0.18320456  0.47735388    -0.00190
C469        C  0.40907832  0.20342247  0.47585512    -0.12360
C470        C  0.42884815  0.24350644  0.47549463     0.02310
C471        C  0.46891636  0.26318251  0.47555208    -0.11780
H472        H  0.48432532  0.18762799  0.47748748     0.07900
H473        H  0.37829448  0.18779584  0.47300674     0.05430
H474        H  0.48460058  0.29397103  0.47245935     0.05280
N475        N  0.65173185  0.32194051  0.01892595    -0.06930
N476        N  0.64447779  0.30695273  0.05639387    -0.59050
N477        N  0.64676210  0.05760495  0.96688813    -0.06610
N478        N  0.64037083  0.08655129  0.96972823    -0.61180
N479        N  0.61440320  0.02505154  0.96721392    -0.06210
N480        N  0.58528046  0.03116601  0.97023530    -0.59030
N481        N  0.35055528  0.02146204  0.01875516    -0.05890
N482        N  0.36560292  0.02957926  0.05613091    -0.61530
C483        C  0.34116602  0.33249587  0.07903921     0.95240
C484        C  0.60189909  0.06966801  0.97176377     0.95020
N485        N  0.39698053  0.08598141  0.87507348    -0.07120
N486        N  0.41298962  0.11548363  0.84958221    -0.59630
N487        N  0.42349092  0.05984252  0.96007905    -0.05240
N488        N  0.45286620  0.07547093  0.98571482    -0.60880
N489        N  0.43276489  0.04831830  0.92619805    -0.07150
N490        N  0.46812247  0.05504192  0.92843850    -0.59900
N491        N  0.38545943  0.09528588  0.90893373    -0.04880
N492        N  0.39257184  0.13080350  0.90680362    -0.60970
Mn493      Mn  0.36859059  0.05923467  0.96434062     1.18440
C494        C  0.40919626  0.14290196  0.86950241     0.97330
C495        C  0.48015764  0.07144224  0.96583816     0.97990
N496        N  0.57706683  0.28617814  0.90974928    -0.07170
N497        N  0.54169990  0.27944140  0.90748382    -0.63480
N498        N  0.62445977  0.23926923  0.92690986    -0.05970
N499        N  0.61731070  0.20374010  0.92895668    -0.64150
N500        N  0.61294848  0.24854417  0.96079669    -0.06670
N501        N  0.59690037  0.21900401  0.98622955    -0.63740
N502        N  0.58636080  0.27469170  0.87586549    -0.05570
N503        N  0.55701541  0.25909283  0.85018955    -0.64430
Mn504      Mn  0.61336453  0.30337567  0.96491563     1.10660
C505        C  0.52969680  0.26308221  0.87005103     0.98550
C506        C  0.60066854  0.19160187  0.96623988     0.98620
N507        N  0.39548387  0.30948030  0.86862548    -0.06680
N508        N  0.42458500  0.30334506  0.86547414    -0.62060
N509        N  0.65915156  0.31331365  0.81743595    -0.06000
N510        N  0.64338397  0.30579203  0.78043721    -0.58790
N511        N  0.35818207  0.01257160  0.81706081    -0.07310
N512        N  0.36498614  0.02779261  0.77973402    -0.61620
N513        N  0.36310455  0.27694842  0.86889433    -0.06300
N514        N  0.36946929  0.24798835  0.86590389    -0.58810
Mn515      Mn  0.39655483  0.03114379  0.87099773     1.20190
Mn516      Mn  0.64126384  0.27536954  0.87159514     1.10090
Cl517      Cl  0.33828455  0.00060880  0.91797825    -0.86780
C518        C  0.40794239  0.26484635  0.86382348     0.95550
C519        C  0.66789557  0.00262231  0.75717041     0.95350
N520        N  0.43258581  0.04804887  0.40939673    -0.06930
N521        N  0.46794236  0.05477091  0.40714833    -0.59050
N522        N  0.38529126  0.09503301  0.42669091    -0.06610
N523        N  0.39239018  0.13054494  0.42883252    -0.61180
N524        N  0.39681528  0.08571399  0.46053857    -0.06210
N525        N  0.41281003  0.11519840  0.48603580    -0.59030
N526        N  0.42332488  0.05960239  0.37552675    -0.05890
N527        N  0.45270953  0.07524939  0.34988862    -0.61530
C528        C  0.47999202  0.07120062  0.36975381     0.95240
C529        C  0.40900785  0.14262277  0.46613042     0.95020
N530        N  0.61423996  0.02482496  0.36844349    -0.07120
N531        N  0.58511921  0.03094182  0.36542091    -0.59630
N532        N  0.35040279  0.02125555  0.31689215    -0.05240
N533        N  0.36546716  0.02940236  0.27951891    -0.60880
N534        N  0.65157781  0.32173554  0.31671694    -0.07150
N535        N  0.64433723  0.30678084  0.27924045    -0.59900
N536        N  0.64659959  0.05737753  0.36876370    -0.04880
N537        N  0.64021057  0.08632578  0.36591860    -0.60970
Mn538      Mn  0.36842670  0.05900259  0.37129362     1.18440
C539        C  0.60173962  0.06944445  0.36388604     0.97330
C540        C  0.34103906  0.33234259  0.25660071     0.97990
N541        N  0.35802066  0.01231872  0.51855179    -0.07170
N542        N  0.36485146  0.02758233  0.55584517    -0.63480
N543        N  0.36290568  0.27667197  0.46676221    -0.05970
N544        N  0.36926329  0.24770689  0.46976626    -0.64150
N545        N  0.39528926  0.30919974  0.46699686    -0.06670
N546        N  0.42438542  0.30305724  0.47014158    -0.63740
N547        N  0.65898370  0.31306669  0.51823576    -0.05570
N548        N  0.64324001  0.30558879  0.55525802    -0.64430
Mn549      Mn  0.39637769  0.03087121  0.46460701     1.10660
C550        C  0.66777675  0.00244728  0.57846338     0.98550
C551        C  0.40773659  0.26455858  0.47182150     0.98620
N552        N  0.61277492  0.24831223  0.37488147    -0.06680
N553        N  0.59674016  0.21878542  0.34944812    -0.62060
N554        N  0.58617281  0.27444316  0.45981817    -0.06000
N555        N  0.55681408  0.25882576  0.48549157    -0.58790
N556        N  0.57688819  0.28593425  0.42592747    -0.07310
N557        N  0.54151632  0.27918503  0.42818862    -0.61620
N558        N  0.62426375  0.23901862  0.40877441    -0.06300
N559        N  0.61711284  0.20348893  0.40672890    -0.58810
Mn560      Mn  0.61319716  0.30314711  0.37074718     1.20190
Mn561      Mn  0.64107192  0.27511073  0.46408462     1.10090
Cl562      Cl  0.33810774  0.00035860  0.41766666    -0.86780
C563        C  0.60049224  0.19137101  0.36944209     0.95550
C564        C  0.52949858  0.26281162  0.46562325     0.95350
C565        C  0.63700502  0.30624013  0.64627607     0.22780
C566        C  0.66487779  0.00449761  0.62403973    -0.25330
C567        C  0.35817953  0.03693395  0.64613515     0.17690
C568        C  0.35821315  0.03697713  0.68939267     0.22720
C569        C  0.66494370  0.00458725  0.71159039    -0.25270
C570        C  0.63703632  0.30628434  0.68945475     0.17620
F571        F  0.61051578  0.27449828  0.70938379    -0.15230
F572        F  0.61046011  0.27441489  0.62644656    -0.17590
F573        F  0.38494549  0.06855165  0.70941562    -0.17590
F574        F  0.38488032  0.06847195  0.62601141    -0.15230
C575        C  0.33367916  0.02401719  0.18940662     0.22780
C576        C  0.34173169  0.33216084  0.21124149    -0.25330
C577        C  0.34971788  0.30686948  0.18948463     0.17690
C578        C  0.34976182  0.30691672  0.14613110     0.22720
C579        C  0.34182437  0.33225867  0.12439811    -0.25270
C580        C  0.33372466  0.02406543  0.14625655     0.17620
F581        F  0.65829152  0.04802846  0.12571183    -0.15230
F582        F  0.65821019  0.04793995  0.20997301    -0.17590
F583        F  0.35806236  0.28274424  0.12537877    -0.17590
F584        F  0.35798464  0.28265798  0.21021432    -0.15230
C585        C  0.52066386  0.42440162  0.97719145     0.02310
C586        C  0.54072445  0.40437453  0.97556016    -0.13840
C587        C  0.58078576  0.42404138  0.97540796    -0.00190
C588        C  0.60056529  0.46411987  0.97576226    -0.12360
C589        C  0.58072989  0.48434344  0.97739008     0.02310
C590        C  0.54077655  0.46437323  0.97949607    -0.11780
H591        H  0.52503082  0.37358673  0.97247077     0.07900
H592        H  0.63134649  0.47974344  0.97285430     0.05430
H593        H  0.52534980  0.47994909  0.97771024     0.05280
C594        C  0.52050504  0.42417484  0.35841019     0.02310
C595        C  0.54061682  0.46414920  0.35613609    -0.13840
C596        C  0.58056786  0.48412067  0.35827828    -0.00190
C597        C  0.60040504  0.46389870  0.35991087    -0.12360
C598        C  0.58062844  0.42381975  0.36023482     0.02310
C599        C  0.54056760  0.40414988  0.36004603    -0.11780
H600        H  0.52518527  0.47972025  0.35791926     0.07900
H601        H  0.63118284  0.47952139  0.36284487     0.05430
H602        H  0.52487309  0.37335868  0.36311452     0.05280
C603        C  0.48919856  0.57678420  0.85861224     0.02310
C604        C  0.46912462  0.59680328  0.86011264    -0.13840
C605        C  0.42905653  0.57713023  0.86015605    -0.00190
C606        C  0.40928368  0.53704633  0.85978589    -0.12360
C607        C  0.42913297  0.51682543  0.85828884     0.02310
C608        C  0.46909405  0.53681104  0.85629689    -0.11760
H609        H  0.48480895  0.62758957  0.86321234     0.07900
H610        H  0.37849769  0.52141985  0.86262324     0.05430
H611        H  0.48452389  0.52124219  0.85817242     0.05280
C612        C  0.48899360  0.57650037  0.47705693     0.02310
C613        C  0.46889104  0.53652567  0.47936131    -0.13840
C614        C  0.42893116  0.51653790  0.47735388    -0.00190
C615        C  0.40907832  0.53675580  0.47585512    -0.12360
C616        C  0.42884815  0.57683977  0.47549463     0.02310
C617        C  0.46891637  0.59651585  0.47555208    -0.11780
H618        H  0.48432533  0.52096133  0.47748748     0.07900
H619        H  0.37829448  0.52112918  0.47300674     0.05430
H620        H  0.48460058  0.62730437  0.47245935     0.05280
N621        N  0.65173184  0.65527384  0.01892595    -0.06930
N622        N  0.64447778  0.64028607  0.05639387    -0.59050
N623        N  0.64676211  0.39093829  0.96688813    -0.06610
N624        N  0.64037083  0.41988463  0.96972823    -0.61180
N625        N  0.61440321  0.35838487  0.96721393    -0.06210
N626        N  0.58528046  0.36449935  0.97023531    -0.59030
N627        N  0.35055528  0.35479537  0.01875516    -0.05890
N628        N  0.36560292  0.36291260  0.05613091    -0.61530
C629        C  0.34116600  0.66582920  0.07903921     0.95240
C630        C  0.60189909  0.40300134  0.97176378     0.95020
N631        N  0.39698053  0.41931475  0.87507347    -0.07120
N632        N  0.41298962  0.44881696  0.84958220    -0.59630
N633        N  0.42349092  0.39317585  0.96007905    -0.05240
N634        N  0.45286620  0.40880426  0.98571482    -0.60880
N635        N  0.43276489  0.38165164  0.92619804    -0.07150
N636        N  0.46812247  0.38837525  0.92843850    -0.59900
N637        N  0.38545943  0.42861922  0.90893372    -0.04880
N638        N  0.39257184  0.46413684  0.90680361    -0.60970
Mn639      Mn  0.36859060  0.39256801  0.96434062     1.18440
C640        C  0.40919626  0.47623529  0.86950241     0.97330
C641        C  0.48015765  0.40477557  0.96583816     0.97990
N642        N  0.57706683  0.61951147  0.90974928    -0.07170
N643        N  0.54169989  0.61277473  0.90748382    -0.63480
N644        N  0.62445977  0.57260256  0.92690986    -0.05970
N645        N  0.61731070  0.53707344  0.92895668    -0.64150
N646        N  0.61294848  0.58187750  0.96079669    -0.06670
N647        N  0.59690037  0.55233734  0.98622955    -0.63740
N648        N  0.58636080  0.60802503  0.87586549    -0.05570
N649        N  0.55701541  0.59242617  0.85018955    -0.64430
Mn650      Mn  0.61336453  0.63670901  0.96491563     1.10660
C651        C  0.52969680  0.59641554  0.87005103     0.98550
C652        C  0.60066854  0.52493520  0.96623988     0.98620
N653        N  0.39548387  0.64281363  0.86862548    -0.06680
N654        N  0.42458499  0.63667840  0.86547413    -0.62060
N655        N  0.65915156  0.64664698  0.81743595    -0.06000
N656        N  0.64338397  0.63912536  0.78043721    -0.58790
N657        N  0.35818208  0.34590494  0.81706081    -0.07310
N658        N  0.36498614  0.36112595  0.77973402    -0.61620
N659        N  0.36310454  0.61028175  0.86889432    -0.06300
N660        N  0.36946929  0.58132168  0.86590388    -0.58810
Mn661      Mn  0.39655483  0.36447713  0.87099773     1.20190
Mn662      Mn  0.64126384  0.60870287  0.87159514     1.10090
Cl663      Cl  0.33828455  0.33394214  0.91797825    -0.86780
C664        C  0.40794238  0.59817968  0.86382347     0.95550
C665        C  0.66789558  0.33595565  0.75717041     0.95350
N666        N  0.43258582  0.38138221  0.40939674    -0.06930
N667        N  0.46794236  0.38810425  0.40714833    -0.59050
N668        N  0.38529127  0.42836635  0.42669091    -0.06610
N669        N  0.39239019  0.46387828  0.42883252    -0.61180
N670        N  0.39681528  0.41904733  0.46053857    -0.06210
N671        N  0.41281004  0.44853174  0.48603580    -0.59030
N672        N  0.42332489  0.39293573  0.37552675    -0.05890
N673        N  0.45270953  0.40858273  0.34988863    -0.61530
C674        C  0.47999202  0.40453396  0.36975381     0.95240
C675        C  0.40900786  0.47595611  0.46613042     0.95020
N676        N  0.61423996  0.35815829  0.36844349    -0.07120
N677        N  0.58511922  0.36427515  0.36542091    -0.59630
N678        N  0.35040280  0.35458889  0.31689215    -0.05240
N679        N  0.36546717  0.36273570  0.27951891    -0.60880
N680        N  0.65157782  0.65506888  0.31671694    -0.07150
N681        N  0.64433723  0.64011418  0.27924046    -0.59900
N682        N  0.64659959  0.39071086  0.36876370    -0.04880
N683        N  0.64021057  0.41965911  0.36591860    -0.60970
Mn684      Mn  0.36842671  0.39233593  0.37129362     1.18440
C685        C  0.60173962  0.40277779  0.36388604     0.97330
C686        C  0.34103904  0.66567592  0.25660071     0.97990
N687        N  0.35802066  0.34565206  0.51855179    -0.07170
N688        N  0.36485146  0.36091567  0.55584517    -0.63480
N689        N  0.36290568  0.61000530  0.46676222    -0.05970
N690        N  0.36926329  0.58104022  0.46976627    -0.64150
N691        N  0.39528926  0.64253308  0.46699687    -0.06670
N692        N  0.42438542  0.63639057  0.47014159    -0.63740
N693        N  0.65898371  0.64640003  0.51823576    -0.05570
N694        N  0.64324001  0.63892213  0.55525802    -0.64430
Mn695      Mn  0.39637769  0.36420455  0.46460701     1.10660
C696        C  0.66777676  0.33578061  0.57846338     0.98550
C697        C  0.40773659  0.59789191  0.47182150     0.98620
N698        N  0.61277493  0.58164557  0.37488147    -0.06680
N699        N  0.59674017  0.55211876  0.34944812    -0.62060
N700        N  0.58617281  0.60777650  0.45981817    -0.06000
N701        N  0.55681408  0.59215910  0.48549157    -0.58790
N702        N  0.57688819  0.61926759  0.42592747    -0.07310
N703        N  0.54151633  0.61251837  0.42818862    -0.61620
N704        N  0.62426375  0.57235195  0.40877441    -0.06300
N705        N  0.61711284  0.53682227  0.40672890    -0.58810
Mn706      Mn  0.61319717  0.63648044  0.37074718     1.20190
Mn707      Mn  0.64107193  0.60844407  0.46408462     1.10090
Cl708      Cl  0.33810775  0.33369193  0.41766666    -0.86780
C709        C  0.60049225  0.52470434  0.36944209     0.95550
C710        C  0.52949858  0.59614496  0.46562325     0.95350
C711        C  0.63700503  0.63957346  0.64627607     0.22780
C712        C  0.66487780  0.33783095  0.62403973    -0.25330
C713        C  0.35817953  0.37026729  0.64613515     0.17690
C714        C  0.35821315  0.37031048  0.68939267     0.22720
C715        C  0.66494372  0.33792059  0.71159039    -0.25270
C716        C  0.63703634  0.63961767  0.68945475     0.17620
F717        F  0.61051581  0.60783160  0.70938379    -0.15230
F718        F  0.61046014  0.60774821  0.62644656    -0.17590
F719        F  0.38494549  0.40188500  0.70941562    -0.17590
F720        F  0.38488031  0.40180530  0.62601141    -0.15230
C721        C  0.33367917  0.35735054  0.18940663     0.22780
C722        C  0.34173168  0.66549417  0.21124149    -0.25330
C723        C  0.34971788  0.64020282  0.18948463     0.17690
C724        C  0.34976181  0.64025006  0.14613109     0.22720
C725        C  0.34182435  0.66559200  0.12439811    -0.25270
C726        C  0.33372467  0.35739878  0.14625655     0.17620
F727        F  0.65829156  0.38136182  0.12571182    -0.15230
F728        F  0.65821022  0.38127331  0.20997300    -0.17590
F729        F  0.35806236  0.61607758  0.12537877    -0.17590
F730        F  0.35798465  0.61599132  0.21021432    -0.15230
C731        C  0.52066385  0.75773495  0.97719144     0.02310
C732        C  0.54072445  0.73770786  0.97556015    -0.13840
C733        C  0.58078576  0.75737470  0.97540796    -0.00190
C734        C  0.60056528  0.79745320  0.97576226    -0.12360
C735        C  0.58072988  0.81767677  0.97739008     0.02310
C736        C  0.54077654  0.79770655  0.97949606    -0.11780
H737        H  0.52503081  0.70692006  0.97247076     0.07900
H738        H  0.63134648  0.81307676  0.97285430     0.05430
H739        H  0.52534979  0.81328241  0.97771023     0.05280
C740        C  0.52050504  0.75750817  0.35841020     0.02310
C741        C  0.54061681  0.79748254  0.35613609    -0.13840
C742        C  0.58056785  0.81745400  0.35827828    -0.00190
C743        C  0.60040504  0.79723203  0.35991086    -0.12360
C744        C  0.58062844  0.75715308  0.36023482     0.02310
C745        C  0.54056760  0.73748322  0.36004604    -0.11780
H746        H  0.52518527  0.81305358  0.35791926     0.07900
H747        H  0.63118284  0.81285472  0.36284487     0.05430
H748        H  0.52487309  0.70669201  0.36311452     0.05280
C749        C  0.48919855  0.91011752  0.85861224     0.02310
C750        C  0.46912461  0.93013660  0.86011263    -0.13840
C751        C  0.42905653  0.91046356  0.86015605    -0.00190
C752        C  0.40928367  0.87037966  0.85978589    -0.12360
C753        C  0.42913296  0.85015875  0.85828883     0.02310
C754        C  0.46909404  0.87014437  0.85629688    -0.11760
H755        H  0.48480895  0.96092290  0.86321234     0.07900
H756        H  0.37849769  0.85475318  0.86262324     0.05430
H757        H  0.48452388  0.85457551  0.85817241     0.05280
C758        C  0.48899360  0.90983370  0.47705693     0.02310
C759        C  0.46889104  0.86985900  0.47936131    -0.13840
C760        C  0.42893116  0.84987123  0.47735388    -0.00190
C761        C  0.40907832  0.87008913  0.47585512    -0.12360
C762        C  0.42884815  0.91017310  0.47549463     0.02310
C763        C  0.46891636  0.92984918  0.47555208    -0.11780
H764        H  0.48432533  0.85429466  0.47748748     0.07900
H765        H  0.37829448  0.85446251  0.47300674     0.05430
H766        H  0.48460058  0.96063770  0.47245935     0.05280
N767        N  0.65173183  0.98860717  0.01892595    -0.06930
N768        N  0.64447777  0.97361940  0.05639387    -0.59050
N769        N  0.64676210  0.72427162  0.96688813    -0.06610
N770        N  0.64037083  0.75321796  0.96972823    -0.61180
N771        N  0.61440320  0.69171821  0.96721393    -0.06210
N772        N  0.58528046  0.69783268  0.97023530    -0.59030
N773        N  0.35055527  0.68812870  0.01875516    -0.05890
N774        N  0.36560290  0.69624592  0.05613091    -0.61530
C775        C  0.34116602  0.99916253  0.07903921     0.95240
C776        C  0.60189909  0.73633467  0.97176377     0.95020
N777        N  0.39698052  0.75264807  0.87507347    -0.07120
N778        N  0.41298961  0.78215029  0.84958220    -0.59630
N779        N  0.42349092  0.72650918  0.96007904    -0.05240
N780        N  0.45286619  0.74213758  0.98571481    -0.60880
N781        N  0.43276488  0.71498496  0.92619804    -0.07150
N782        N  0.46812246  0.72170858  0.92843849    -0.59900
N783        N  0.38545942  0.76195255  0.90893372    -0.04880
N784        N  0.39257183  0.79747016  0.90680361    -0.60970
Mn785      Mn  0.36859059  0.72590134  0.96434061     1.18440
C786        C  0.40919625  0.80956862  0.86950241     0.97330
C787        C  0.48015764  0.73810890  0.96583815     0.97990
N788        N  0.57706682  0.95284480  0.90974928    -0.07170
N789        N  0.54169989  0.94610806  0.90748381    -0.63480
N790        N  0.62445976  0.90593589  0.92690986    -0.05970
N791        N  0.61731070  0.87040676  0.92895668    -0.64150
N792        N  0.61294847  0.91521083  0.96079669    -0.06670
N793        N  0.59690036  0.88567067  0.98622954    -0.63740
N794        N  0.58636079  0.94135836  0.87586549    -0.05570
N795        N  0.55701540  0.92575949  0.85018954    -0.64430
Mn796      Mn  0.61336452  0.97004233  0.96491563     1.10660
C797        C  0.52969679  0.92974886  0.87005103     0.98550
C798        C  0.60066853  0.85826853  0.96623988     0.98620
N799        N  0.39548387  0.97614696  0.86862548    -0.06680
N800        N  0.42458499  0.97001173  0.86547414    -0.62060
N801        N  0.65915155  0.97998030  0.81743595    -0.06000
N802        N  0.64338396  0.97245869  0.78043721    -0.58790
N803        N  0.35818207  0.67923827  0.81706080    -0.07310
N804        N  0.36498612  0.69445928  0.77973401    -0.61620
N805        N  0.36310455  0.94361508  0.86889433    -0.06300
N806        N  0.36946929  0.91465501  0.86590389    -0.58810
Mn807      Mn  0.39655482  0.69781045  0.87099772     1.20190
Mn808      Mn  0.64126384  0.94203619  0.87159514     1.10090
Cl809      Cl  0.33828455  0.66727547  0.91797824    -0.86780
C810        C  0.40794238  0.93151302  0.86382348     0.95550
C811        C  0.66789559  0.66928899  0.75717041     0.95350
N812        N  0.43258581  0.71471554  0.40939674    -0.06930
N813        N  0.46794236  0.72143758  0.40714834    -0.59050
N814        N  0.38529126  0.76169968  0.42669091    -0.06610
N815        N  0.39239018  0.79721161  0.42883252    -0.61180
N816        N  0.39681528  0.75238066  0.46053857    -0.06210
N817        N  0.41281003  0.78186507  0.48603580    -0.59030
N818        N  0.42332488  0.72626906  0.37552676    -0.05890
N819        N  0.45270953  0.74191606  0.34988863    -0.61530
C820        C  0.47999202  0.73786729  0.36975382     0.95240
C821        C  0.40900785  0.80928944  0.46613042     0.95020
N822        N  0.61423996  0.69149163  0.36844349    -0.07120
N823        N  0.58511922  0.69760849  0.36542091    -0.59630
N824        N  0.35040280  0.68792222  0.31689215    -0.05240
N825        N  0.36546716  0.69606903  0.27951891    -0.60880
N826        N  0.65157781  0.98840221  0.31671694    -0.07150
N827        N  0.64433722  0.97344751  0.27924046    -0.59900
N828        N  0.64659959  0.72404420  0.36876369    -0.04880
N829        N  0.64021057  0.75299245  0.36591859    -0.60970
Mn830      Mn  0.36842670  0.72566926  0.37129362     1.18440
C831        C  0.60173962  0.73611112  0.36388604     0.97330
C832        C  0.34103904  0.99900925  0.25660071     0.97990
N833        N  0.35802065  0.67898539  0.51855180    -0.07170
N834        N  0.36485145  0.69424900  0.55584517    -0.63480
N835        N  0.36290568  0.94333863  0.46676221    -0.05970
N836        N  0.36926329  0.91437355  0.46976626    -0.64150
N837        N  0.39528925  0.97586641  0.46699686    -0.06670
N838        N  0.42438542  0.96972390  0.47014158    -0.63740
N839        N  0.65898370  0.97973336  0.51823576    -0.05570
N840        N  0.64324000  0.97225546  0.55525802    -0.64430
Mn841      Mn  0.39637769  0.69753788  0.46460702     1.10660
C842        C  0.66777677  0.66911395  0.57846338     0.98550
C843        C  0.40773659  0.93122524  0.47182149     0.98620
N844        N  0.61277492  0.91497890  0.37488147    -0.06680
N845        N  0.59674016  0.88545209  0.34944812    -0.62060
N846        N  0.58617281  0.94110983  0.45981817    -0.06000
N847        N  0.55681408  0.92549243  0.48549157    -0.58790
N848        N  0.57688819  0.95260091  0.42592747    -0.07310
N849        N  0.54151632  0.94585170  0.42818862    -0.61620
N850        N  0.62426375  0.90568529  0.40877441    -0.06300
N851        N  0.61711284  0.87015560  0.40672890    -0.58810
Mn852      Mn  0.61319716  0.96981377  0.37074718     1.20190
Mn853      Mn  0.64107192  0.94177739  0.46408462     1.10090
Cl854      Cl  0.33810774  0.66702526  0.41766667    -0.86780
C855        C  0.60049224  0.85803767  0.36944209     0.95550
C856        C  0.52949858  0.92947829  0.46562325     0.95350
C857        C  0.63700501  0.97290679  0.64627607     0.22780
C858        C  0.66487781  0.67116428  0.62403973    -0.25330
C859        C  0.35817950  0.70360063  0.64613515     0.17690
C860        C  0.35821312  0.70364382  0.68939267     0.22720
C861        C  0.66494372  0.67125392  0.71159039    -0.25270
C862        C  0.63703632  0.97295100  0.68945475     0.17620
F863        F  0.61051578  0.94116493  0.70938378    -0.15230
F864        F  0.61046012  0.94108154  0.62644656    -0.17590
F865        F  0.38494545  0.73521834  0.70941562    -0.17590
F866        F  0.38488028  0.73513864  0.62601141    -0.15230
C867        C  0.33367914  0.69068386  0.18940663     0.22780
C868        C  0.34173168  0.99882750  0.21124149    -0.25330
C869        C  0.34971787  0.97353614  0.18948464     0.17690
C870        C  0.34976181  0.97358338  0.14613110     0.22720
C871        C  0.34182436  0.99892533  0.12439811    -0.25270
C872        C  0.33372464  0.69073210  0.14625655     0.17620
F873        F  0.65829156  0.71469515  0.12571183    -0.15230
F874        F  0.65821023  0.71460664  0.20997301    -0.17590
F875        F  0.35806236  0.94941090  0.12537877    -0.17590
F876        F  0.35798463  0.94932464  0.21021432    -0.15230
C877        C  0.85399718  0.09106828  0.97719144     0.02310
C878        C  0.87405778  0.07104119  0.97556015    -0.13840
C879        C  0.91411909  0.09070804  0.97540796    -0.00190
C880        C  0.93389862  0.13078653  0.97576226    -0.12360
C881        C  0.91406321  0.15101010  0.97739008     0.02310
C882        C  0.87410987  0.13103989  0.97949606    -0.11780
H883        H  0.85836414  0.04025339  0.97247076     0.07900
H884        H  0.96467982  0.14641010  0.97285430     0.05430
H885        H  0.85868312  0.14661575  0.97771023     0.05280
C886        C  0.85383838  0.09084151  0.35841020     0.02310
C887        C  0.87395015  0.13081587  0.35613609    -0.13840
C888        C  0.91390119  0.15078734  0.35827828    -0.00190
C889        C  0.93373838  0.13056537  0.35991087    -0.12360
C890        C  0.91396177  0.09048642  0.36023482     0.02310
C891        C  0.87390093  0.07081655  0.36004604    -0.11780
H892        H  0.85851860  0.14638692  0.35791927     0.07900
H893        H  0.96451617  0.14618806  0.36284487     0.05430
H894        H  0.85820642  0.04002535  0.36311452     0.05280
C895        C  0.82253188  0.24345085  0.85861224     0.02310
C896        C  0.80245795  0.26346994  0.86011263    -0.13840
C897        C  0.76238987  0.24379689  0.86015605    -0.00190
C898        C  0.74261701  0.20371299  0.85978589    -0.12360
C899        C  0.76246630  0.18349209  0.85828883     0.02310
C900        C  0.80242738  0.20347770  0.85629689    -0.11760
H901        H  0.81814228  0.29425623  0.86321233     0.07900
H902        H  0.71183102  0.18808651  0.86262324     0.05430
H903        H  0.81785721  0.18790884  0.85817241     0.05280
C904        C  0.82232693  0.24316703  0.47705693     0.02310
C905        C  0.80222437  0.20319234  0.47936131    -0.13840
C906        C  0.76226449  0.18320456  0.47735388    -0.00190
C907        C  0.74241165  0.20342247  0.47585512    -0.12360
C908        C  0.76218148  0.24350644  0.47549463     0.02310
C909        C  0.80224970  0.26318251  0.47555208    -0.11780
H910        H  0.81765866  0.18762800  0.47748748     0.07900
H911        H  0.71162781  0.18779584  0.47300674     0.05430
H912        H  0.81793391  0.29397104  0.47245935     0.05280
N913        N  0.98506517  0.32194051  0.01892595    -0.06930
N914        N  0.97781110  0.30695273  0.05639387    -0.59050
N915        N  0.98009544  0.05760495  0.96688813    -0.06610
N916        N  0.97370416  0.08655129  0.96972823    -0.61180
N917        N  0.94773654  0.02505154  0.96721393    -0.06210
N918        N  0.91861379  0.03116601  0.97023531    -0.59030
N919        N  0.68388861  0.02146203  0.01875516    -0.05890
N920        N  0.69893624  0.02957925  0.05613091    -0.61530
C921        C  0.67449936  0.33249587  0.07903921     0.95240
C922        C  0.93523242  0.06966801  0.97176377     0.95020
N923        N  0.73031385  0.08598140  0.87507347    -0.07120
N924        N  0.74632294  0.11548362  0.84958220    -0.59630
N925        N  0.75682425  0.05984251  0.96007904    -0.05240
N926        N  0.78619952  0.07547092  0.98571482    -0.60880
N927        N  0.76609822  0.04831830  0.92619804    -0.07150
N928        N  0.80145580  0.05504191  0.92843850    -0.59900
N929        N  0.71879276  0.09528588  0.90893372    -0.04880
N930        N  0.72590517  0.13080350  0.90680361    -0.60970
Mn931      Mn  0.70192392  0.05923467  0.96434061     1.18440
C932        C  0.74252958  0.14290195  0.86950241     0.97330
C933        C  0.81349097  0.07144223  0.96583815     0.97990
N934        N  0.91040015  0.28617813  0.90974928    -0.07170
N935        N  0.87503322  0.27944139  0.90748381    -0.63480
N936        N  0.95779310  0.23926922  0.92690986    -0.05970
N937        N  0.95064403  0.20374010  0.92895668    -0.64150
N938        N  0.94628181  0.24854416  0.96079668    -0.06670
N939        N  0.93023369  0.21900400  0.98622954    -0.63740
N940        N  0.91969412  0.27469169  0.87586549    -0.05570
N941        N  0.89034874  0.25909282  0.85018954    -0.64430
Mn942      Mn  0.94669786  0.30337567  0.96491563     1.10660
C943        C  0.86303013  0.26308220  0.87005103     0.98550
C944        C  0.93400186  0.19160186  0.96623988     0.98620
N945        N  0.72881720  0.30948030  0.86862548    -0.06680
N946        N  0.75791833  0.30334506  0.86547413    -0.62060
N947        N  0.99248488  0.31331364  0.81743595    -0.06000
N948        N  0.97671729  0.30579202  0.78043721    -0.58790
N949        N  0.69151540  0.01257160  0.81706081    -0.07310
N950        N  0.69831946  0.02779261  0.77973401    -0.61620
N951        N  0.69643788  0.27694842  0.86889432    -0.06300
N952        N  0.70280262  0.24798834  0.86590388    -0.58810
Mn953      Mn  0.72988816  0.03114378  0.87099772     1.20190
Mn954      Mn  0.97459717  0.27536953  0.87159514     1.10090
Cl955      Cl  0.67161788  0.00060880  0.91797824    -0.86780
C956        C  0.74127572  0.26484635  0.86382347     0.95550
C957        C  0.00122892  0.00262231  0.75717041     0.95350
N958        N  0.76591915  0.04804887  0.40939674    -0.06930
N959        N  0.80127569  0.05477092  0.40714834    -0.59050
N960        N  0.71862459  0.09503301  0.42669091    -0.06610
N961        N  0.72572352  0.13054494  0.42883252    -0.61180
N962        N  0.73014861  0.08571399  0.46053857    -0.06210
N963        N  0.74614337  0.11519840  0.48603580    -0.59030
N964        N  0.75665821  0.05960239  0.37552676    -0.05890
N965        N  0.78604286  0.07524939  0.34988863    -0.61530
C966        C  0.81332535  0.07120063  0.36975382     0.95240
C967        C  0.74234119  0.14262277  0.46613042     0.95020
N968        N  0.94757330  0.02482496  0.36844349    -0.07120
N969        N  0.91845255  0.03094182  0.36542091    -0.59630
N970        N  0.68373613  0.02125556  0.31689215    -0.05240
N971        N  0.69880049  0.02940236  0.27951891    -0.60880
N972        N  0.98491115  0.32173554  0.31671694    -0.07150
N973        N  0.97767056  0.30678085  0.27924046    -0.59900
N974        N  0.97993293  0.05737753  0.36876369    -0.04880
N975        N  0.97354390  0.08632578  0.36591859    -0.60970
Mn976      Mn  0.70176004  0.05900259  0.37129362     1.18440
C977        C  0.93507295  0.06944445  0.36388604     0.97330
C978        C  0.67437238  0.33234258  0.25660071     0.97990
N979        N  0.69135399  0.01231872  0.51855179    -0.07170
N980        N  0.69818478  0.02758233  0.55584517    -0.63480
N981        N  0.69623901  0.27667196  0.46676221    -0.05970
N982        N  0.70259662  0.24770688  0.46976626    -0.64150
N983        N  0.72862259  0.30919974  0.46699686    -0.06670
N984        N  0.75771875  0.30305724  0.47014158    -0.63740
N985        N  0.99231704  0.31306669  0.51823576    -0.05570
N986        N  0.97657333  0.30558879  0.55525802    -0.64430
Mn987      Mn  0.72971102  0.03087121  0.46460701     1.10660
C988        C  0.00111010  0.00244728  0.57846338     0.98550
C989        C  0.74106992  0.26455858  0.47182149     0.98620
N990        N  0.94610826  0.24831223  0.37488147    -0.06680
N991        N  0.93007350  0.21878542  0.34944812    -0.62060
N992        N  0.91950615  0.27444316  0.45981818    -0.06000
N993        N  0.89014741  0.25882576  0.48549157    -0.58790
N994        N  0.91022152  0.28593425  0.42592747    -0.07310
N995        N  0.87484966  0.27918503  0.42818862    -0.61620
N996        N  0.95759709  0.23901862  0.40877441    -0.06300
N997        N  0.95044617  0.20348894  0.40672890    -0.58810
Mn998      Mn  0.94653050  0.30314711  0.37074719     1.20190
Mn999      Mn  0.97440526  0.27511073  0.46408462     1.10090
Cl1000     Cl  0.67144108  0.00035860  0.41766667    -0.86780
C1001       C  0.93382558  0.19137101  0.36944209     0.95550
C1002       C  0.86283192  0.26281162  0.46562325     0.95350
C1003       C  0.97033835  0.30624012  0.64627607     0.22780
C1004       C  0.99821115  0.00449761  0.62403973    -0.25330
C1005       C  0.69151285  0.03693395  0.64613515     0.17690
C1006       C  0.69154647  0.03697714  0.68939267     0.22720
C1007       C  0.99827706  0.00458725  0.71159039    -0.25270
C1008       C  0.97036965  0.30628433  0.68945475     0.17620
F1009       F  0.94384913  0.27449825  0.70938378    -0.15230
F1010       F  0.94379346  0.27441487  0.62644656    -0.17590
F1011       F  0.71827880  0.06855166  0.70941562    -0.17590
F1012       F  0.71821363  0.06847196  0.62601141    -0.15230
C1013       C  0.66701248  0.02401719  0.18940663     0.22780
C1014       C  0.67506502  0.33216084  0.21124149    -0.25330
C1015       C  0.68305121  0.30686948  0.18948463     0.17690
C1016       C  0.68309515  0.30691672  0.14613110     0.22720
C1017       C  0.67515770  0.33225867  0.12439811    -0.25270
C1018       C  0.66705797  0.02406543  0.14625655     0.17620
F1019       F  0.99162488  0.04802847  0.12571183    -0.15230
F1020       F  0.99154355  0.04793996  0.20997301    -0.17590
F1021       F  0.69139569  0.28274423  0.12537877    -0.17590
F1022       F  0.69131797  0.28265797  0.21021432    -0.15230
C1023       C  0.85399719  0.42440162  0.97719144     0.02310
C1024       C  0.87405778  0.40437453  0.97556015    -0.13840
C1025       C  0.91411909  0.42404137  0.97540796    -0.00190
C1026       C  0.93389862  0.46411987  0.97576226    -0.12360
C1027       C  0.91406322  0.48434344  0.97739008     0.02310
C1028       C  0.87410988  0.46437322  0.97949606    -0.11780
H1029       H  0.85836415  0.37358673  0.97247077     0.07900
H1030       H  0.96467982  0.47974343  0.97285429     0.05430
H1031       H  0.85868313  0.47994909  0.97771024     0.05280
C1032       C  0.85383837  0.42417484  0.35841019     0.02310
C1033       C  0.87395015  0.46414920  0.35613609    -0.13840
C1034       C  0.91390119  0.48412067  0.35827828    -0.00190
C1035       C  0.93373838  0.46389870  0.35991087    -0.12360
C1036       C  0.91396177  0.42381975  0.36023482     0.02310
C1037       C  0.87390093  0.40414988  0.36004604    -0.11780
H1038       H  0.85851860  0.47972025  0.35791926     0.07900
H1039       H  0.96451617  0.47952139  0.36284487     0.05430
H1040       H  0.85820642  0.37335868  0.36311452     0.05280
C1041       C  0.82253189  0.57678419  0.85861224     0.02310
C1042       C  0.80245795  0.59680328  0.86011264    -0.13840
C1043       C  0.76238987  0.57713023  0.86015605    -0.00190
C1044       C  0.74261701  0.53704633  0.85978589    -0.12360
C1045       C  0.76246630  0.51682543  0.85828884     0.02310
C1046       C  0.80242738  0.53681104  0.85629689    -0.11760
H1047       H  0.81814228  0.62758957  0.86321234     0.07900
H1048       H  0.71183103  0.52141985  0.86262324     0.05430
H1049       H  0.81785722  0.52124219  0.85817242     0.05280
C1050       C  0.82232693  0.57650037  0.47705694     0.02310
C1051       C  0.80222437  0.53652567  0.47936131    -0.13840
C1052       C  0.76226449  0.51653789  0.47735388    -0.00190
C1053       C  0.74241165  0.53675580  0.47585512    -0.12360
C1054       C  0.76218148  0.57683977  0.47549463     0.02310
C1055       C  0.80224970  0.59651584  0.47555208    -0.11780
H1056       H  0.81765866  0.52096133  0.47748748     0.07900
H1057       H  0.71162781  0.52112918  0.47300674     0.05430
H1058       H  0.81793391  0.62730437  0.47245936     0.05280
N1059       N  0.98506518  0.65527384  0.01892595    -0.06930
N1060       N  0.97781111  0.64028607  0.05639387    -0.59050
N1061       N  0.98009544  0.39093828  0.96688812    -0.06610
N1062       N  0.97370416  0.41988463  0.96972823    -0.61180
N1063       N  0.94773654  0.35838487  0.96721392    -0.06210
N1064       N  0.91861379  0.36449935  0.97023530    -0.59030
N1065       N  0.68388862  0.35479537  0.01875516    -0.05890
N1066       N  0.69893625  0.36291259  0.05613091    -0.61530
C1067       C  0.67449935  0.66582920  0.07903921     0.95240
C1068       C  0.93523242  0.40300134  0.97176377     0.95020
N1069       N  0.73031386  0.41931474  0.87507347    -0.07120
N1070       N  0.74632295  0.44881696  0.84958220    -0.59630
N1071       N  0.75682426  0.39317585  0.96007905    -0.05240
N1072       N  0.78619953  0.40880426  0.98571482    -0.60880
N1073       N  0.76609822  0.38165163  0.92619804    -0.07150
N1074       N  0.80145581  0.38837525  0.92843850    -0.59900
N1075       N  0.71879276  0.42861922  0.90893372    -0.04880
N1076       N  0.72590517  0.46413684  0.90680362    -0.60970
Mn1077     Mn  0.70192393  0.39256801  0.96434061     1.18440
C1078       C  0.74252959  0.47623529  0.86950241     0.97330
C1079       C  0.81349098  0.40477557  0.96583815     0.97990
N1080       N  0.91040016  0.61951147  0.90974928    -0.07170
N1081       N  0.87503323  0.61277473  0.90748381    -0.63480
N1082       N  0.95779310  0.57260256  0.92690986    -0.05970
N1083       N  0.95064404  0.53707344  0.92895668    -0.64150
N1084       N  0.94628181  0.58187750  0.96079669    -0.06670
N1085       N  0.93023370  0.55233734  0.98622954    -0.63740
N1086       N  0.91969413  0.60802503  0.87586549    -0.05570
N1087       N  0.89034874  0.59242617  0.85018955    -0.64430
Mn1088     Mn  0.94669786  0.63670901  0.96491563     1.10660
C1089       C  0.86303013  0.59641554  0.87005103     0.98550
C1090       C  0.93400187  0.52493520  0.96623988     0.98620
N1091       N  0.72881720  0.64281363  0.86862548    -0.06680
N1092       N  0.75791833  0.63667840  0.86547414    -0.62060
N1093       N  0.99248489  0.64664698  0.81743595    -0.06000
N1094       N  0.97671730  0.63912536  0.78043721    -0.58790
N1095       N  0.69151541  0.34590494  0.81706081    -0.07310
N1096       N  0.69831947  0.36112595  0.77973402    -0.61620
N1097       N  0.69643788  0.61028175  0.86889433    -0.06300
N1098       N  0.70280263  0.58132168  0.86590389    -0.58810
Mn1099     Mn  0.72988816  0.36447712  0.87099772     1.20190
Mn1100     Mn  0.97459718  0.60870287  0.87159514     1.10090
Cl1101     Cl  0.67161789  0.33394214  0.91797825    -0.86780
C1102       C  0.74127572  0.59817969  0.86382348     0.95550
C1103       C  0.00122890  0.33595565  0.75717041     0.95350
N1104       N  0.76591915  0.38138220  0.40939674    -0.06930
N1105       N  0.80127569  0.38810425  0.40714833    -0.59050
N1106       N  0.71862460  0.42836634  0.42669091    -0.06610
N1107       N  0.72572351  0.46387827  0.42883252    -0.61180
N1108       N  0.73014861  0.41904733  0.46053857    -0.06210
N1109       N  0.74614337  0.44853173  0.48603580    -0.59030
N1110       N  0.75665821  0.39293572  0.37552675    -0.05890
N1111       N  0.78604286  0.40858272  0.34988863    -0.61530
C1112       C  0.81332535  0.40453396  0.36975381     0.95240
C1113       C  0.74234119  0.47595611  0.46613042     0.95020
N1114       N  0.94757330  0.35815829  0.36844349    -0.07120
N1115       N  0.91845255  0.36427515  0.36542092    -0.59630
N1116       N  0.68373613  0.35458889  0.31689215    -0.05240
N1117       N  0.69880050  0.36273570  0.27951891    -0.60880
N1118       N  0.98491114  0.65506888  0.31671694    -0.07150
N1119       N  0.97767055  0.64011418  0.27924046    -0.59900
N1120       N  0.97993293  0.39071086  0.36876370    -0.04880
N1121       N  0.97354390  0.41965911  0.36591860    -0.60970
Mn1122     Mn  0.70176004  0.39233593  0.37129362     1.18440
C1123       C  0.93507295  0.40277779  0.36388604     0.97330
C1124       C  0.67437239  0.66567592  0.25660071     0.97990
N1125       N  0.69135399  0.34565205  0.51855179    -0.07170
N1126       N  0.69818479  0.36091567  0.55584517    -0.63480
N1127       N  0.69623901  0.61000530  0.46676221    -0.05970
N1128       N  0.70259662  0.58104022  0.46976626    -0.64150
N1129       N  0.72862259  0.64253308  0.46699686    -0.06670
N1130       N  0.75771875  0.63639057  0.47014159    -0.63740
N1131       N  0.99231704  0.64640002  0.51823576    -0.05570
N1132       N  0.97657334  0.63892213  0.55525802    -0.64430
Mn1133     Mn  0.72971102  0.36420454  0.46460701     1.10660
C1134       C  0.00111009  0.33578062  0.57846338     0.98550
C1135       C  0.74106992  0.59789191  0.47182150     0.98620
N1136       N  0.94610825  0.58164557  0.37488147    -0.06680
N1137       N  0.93007349  0.55211875  0.34944812    -0.62060
N1138       N  0.91950614  0.60777649  0.45981818    -0.06000
N1139       N  0.89014741  0.59215909  0.48549157    -0.58790
N1140       N  0.91022152  0.61926758  0.42592747    -0.07310
N1141       N  0.87484966  0.61251836  0.42818862    -0.61620
N1142       N  0.95759708  0.57235195  0.40877441    -0.06300
N1143       N  0.95044617  0.53682227  0.40672890    -0.58810
Mn1144     Mn  0.94653050  0.63648044  0.37074719     1.20190
Mn1145     Mn  0.97440526  0.60844406  0.46408462     1.10090
Cl1146     Cl  0.67144108  0.33369193  0.41766666    -0.86780
C1147       C  0.93382558  0.52470434  0.36944209     0.95550
C1148       C  0.86283191  0.59614495  0.46562325     0.95350
C1149       C  0.97033835  0.63957346  0.64627607     0.22780
C1150       C  0.99821112  0.33783095  0.62403973    -0.25330
C1151       C  0.69151286  0.37026729  0.64613515     0.17690
C1152       C  0.69154649  0.37031048  0.68939267     0.22720
C1153       C  0.99827703  0.33792059  0.71159039    -0.25270
C1154       C  0.97036966  0.63961767  0.68945475     0.17620
F1155       F  0.94384912  0.60783161  0.70938379    -0.15230
F1156       F  0.94379345  0.60774822  0.62644657    -0.17590
F1157       F  0.71827883  0.40188499  0.70941562    -0.17590
F1158       F  0.71821366  0.40180529  0.62601141    -0.15230
C1159       C  0.66701250  0.35735053  0.18940662     0.22780
C1160       C  0.67506503  0.66549417  0.21124149    -0.25330
C1161       C  0.68305122  0.64020281  0.18948463     0.17690
C1162       C  0.68309515  0.64025005  0.14613110     0.22720
C1163       C  0.67515770  0.66559200  0.12439811    -0.25270
C1164       C  0.66705801  0.35739878  0.14625655     0.17620
F1165       F  0.99162486  0.38136181  0.12571183    -0.15230
F1166       F  0.99154353  0.38127330  0.20997301    -0.17590
F1167       F  0.69139569  0.61607757  0.12537877    -0.17590
F1168       F  0.69131798  0.61599131  0.21021432    -0.15230
C1169       C  0.85399719  0.75773495  0.97719145     0.02310
C1170       C  0.87405778  0.73770786  0.97556016    -0.13840
C1171       C  0.91411909  0.75737471  0.97540796    -0.00190
C1172       C  0.93389862  0.79745320  0.97576227    -0.12360
C1173       C  0.91406322  0.81767677  0.97739008     0.02310
C1174       C  0.87410988  0.79770656  0.97949607    -0.11780
H1175       H  0.85836415  0.70692006  0.97247077     0.07900
H1176       H  0.96467982  0.81307677  0.97285430     0.05430
H1177       H  0.85868313  0.81328242  0.97771024     0.05280
C1178       C  0.85383838  0.75750818  0.35841019     0.02310
C1179       C  0.87395015  0.79748254  0.35613608    -0.13840
C1180       C  0.91390119  0.81745400  0.35827828    -0.00190
C1181       C  0.93373838  0.79723203  0.35991086    -0.12360
C1182       C  0.91396177  0.75715308  0.36023482     0.02310
C1183       C  0.87390093  0.73748322  0.36004603    -0.11780
H1184       H  0.85851860  0.81305359  0.35791926     0.07900
H1185       H  0.96451617  0.81285472  0.36284487     0.05430
H1186       H  0.85820642  0.70669201  0.36311452     0.05280
C1187       C  0.82253189  0.91011753  0.85861224     0.02310
C1188       C  0.80245795  0.93013661  0.86011264    -0.13840
C1189       C  0.76238987  0.91046356  0.86015605    -0.00190
C1190       C  0.74261701  0.87037966  0.85978589    -0.12360
C1191       C  0.76246630  0.85015876  0.85828884     0.02310
C1192       C  0.80242738  0.87014438  0.85629689    -0.11760
H1193       H  0.81814228  0.96092290  0.86321234     0.07900
H1194       H  0.71183102  0.85475318  0.86262324     0.05430
H1195       H  0.81785722  0.85457552  0.85817242     0.05280
C1196       C  0.82232693  0.90983370  0.47705693     0.02310
C1197       C  0.80222437  0.86985901  0.47936131    -0.13840
C1198       C  0.76226450  0.84987123  0.47735388    -0.00190
C1199       C  0.74241165  0.87008913  0.47585512    -0.12360
C1200       C  0.76218148  0.91017310  0.47549463     0.02310
C1201       C  0.80224970  0.92984918  0.47555207    -0.11780
H1202       H  0.81765866  0.85429467  0.47748747     0.07900
H1203       H  0.71162782  0.85446251  0.47300674     0.05430
H1204       H  0.81793391  0.96063771  0.47245935     0.05280
N1205       N  0.98506518  0.98860718  0.01892596    -0.06930
N1206       N  0.97781112  0.97361940  0.05639388    -0.59050
N1207       N  0.98009544  0.72427162  0.96688813    -0.06610
N1208       N  0.97370417  0.75321796  0.96972823    -0.61180
N1209       N  0.94773654  0.69171821  0.96721393    -0.06210
N1210       N  0.91861379  0.69783268  0.97023531    -0.59030
N1211       N  0.68388862  0.68812870  0.01875516    -0.05890
N1212       N  0.69893625  0.69624593  0.05613091    -0.61530
C1213       C  0.67449934  0.99916253  0.07903921     0.95240
C1214       C  0.93523242  0.73633467  0.97176378     0.95020
N1215       N  0.73031386  0.75264808  0.87507347    -0.07120
N1216       N  0.74632295  0.78215029  0.84958220    -0.59630
N1217       N  0.75682425  0.72650919  0.96007905    -0.05240
N1218       N  0.78619953  0.74213759  0.98571482    -0.60880
N1219       N  0.76609822  0.71498497  0.92619805    -0.07150
N1220       N  0.80145580  0.72170859  0.92843850    -0.59900
N1221       N  0.71879276  0.76195255  0.90893372    -0.04880
N1222       N  0.72590517  0.79747017  0.90680362    -0.60970
Mn1223     Mn  0.70192393  0.72590134  0.96434062     1.18440
C1224       C  0.74252959  0.80956863  0.86950241     0.97330
C1225       C  0.81349098  0.73810890  0.96583816     0.97990
N1226       N  0.91040016  0.95284480  0.90974929    -0.07170
N1227       N  0.87503323  0.94610807  0.90748382    -0.63480
N1228       N  0.95779310  0.90593589  0.92690986    -0.05970
N1229       N  0.95064404  0.87040677  0.92895668    -0.64150
N1230       N  0.94628181  0.91521084  0.96079669    -0.06670
N1231       N  0.93023370  0.88567067  0.98622955    -0.63740
N1232       N  0.91969413  0.94135836  0.87586549    -0.05570
N1233       N  0.89034874  0.92575950  0.85018955    -0.64430
Mn1234     Mn  0.94669786  0.97004234  0.96491564     1.10660
C1235       C  0.86303013  0.92974887  0.87005103     0.98550
C1236       C  0.93400187  0.85826853  0.96623989     0.98620
N1237       N  0.72881720  0.97614696  0.86862548    -0.06680
N1238       N  0.75791832  0.97001173  0.86547414    -0.62060
N1239       N  0.99248489  0.97998031  0.81743596    -0.06000
N1240       N  0.97671731  0.97245869  0.78043722    -0.58790
N1241       N  0.69151541  0.67923827  0.81706081    -0.07310
N1242       N  0.69831947  0.69445928  0.77973402    -0.61620
N1243       N  0.69643788  0.94361508  0.86889433    -0.06300
N1244       N  0.70280262  0.91465501  0.86590389    -0.58810
Mn1245     Mn  0.72988816  0.69781046  0.87099773     1.20190
Mn1246     Mn  0.97459718  0.94203620  0.87159515     1.10090
Cl1247     Cl  0.67161789  0.66727547  0.91797825    -0.86780
C1248       C  0.74127572  0.93151302  0.86382348     0.95550
C1249       C  0.00122892  0.66928899  0.75717041     0.95350
N1250       N  0.76591915  0.71471554  0.40939674    -0.06930
N1251       N  0.80127570  0.72143758  0.40714833    -0.59050
N1252       N  0.71862460  0.76169968  0.42669091    -0.06610
N1253       N  0.72572352  0.79721161  0.42883252    -0.61180
N1254       N  0.73014862  0.75238066  0.46053857    -0.06210
N1255       N  0.74614337  0.78186507  0.48603580    -0.59030
N1256       N  0.75665822  0.72626906  0.37552675    -0.05890
N1257       N  0.78604287  0.74191606  0.34988862    -0.61530
C1258       C  0.81332535  0.73786729  0.36975381     0.95240
C1259       C  0.74234119  0.80928944  0.46613041     0.95020
N1260       N  0.94757329  0.69149163  0.36844349    -0.07120
N1261       N  0.91845255  0.69760849  0.36542092    -0.59630
N1262       N  0.68373613  0.68792222  0.31689215    -0.05240
N1263       N  0.69880050  0.69606903  0.27951891    -0.60880
N1264       N  0.98491115  0.98840221  0.31671694    -0.07150
N1265       N  0.97767057  0.97344751  0.27924045    -0.59900
N1266       N  0.97993293  0.72404419  0.36876370    -0.04880
N1267       N  0.97354390  0.75299244  0.36591860    -0.60970
Mn1268     Mn  0.70176004  0.72566926  0.37129362     1.18440
C1269       C  0.93507295  0.73611112  0.36388604     0.97330
C1270       C  0.67437238  0.99900925  0.25660071     0.97990
N1271       N  0.69135399  0.67898539  0.51855179    -0.07170
N1272       N  0.69818479  0.69424900  0.55584517    -0.63480
N1273       N  0.69623901  0.94333863  0.46676221    -0.05970
N1274       N  0.70259662  0.91437355  0.46976626    -0.64150
N1275       N  0.72862259  0.97586641  0.46699687    -0.06670
N1276       N  0.75771875  0.96972391  0.47014159    -0.63740
N1277       N  0.99231704  0.97973336  0.51823575    -0.05570
N1278       N  0.97657334  0.97225546  0.55525802    -0.64430
Mn1279     Mn  0.72971103  0.69753788  0.46460701     1.10660
C1280       C  0.00111009  0.66911395  0.57846338     0.98550
C1281       C  0.74106992  0.93122525  0.47182149     0.98620
N1282       N  0.94610826  0.91497890  0.37488146    -0.06680
N1283       N  0.93007350  0.88545209  0.34944812    -0.62060
N1284       N  0.91950615  0.94110983  0.45981817    -0.06000
N1285       N  0.89014741  0.92549243  0.48549156    -0.58790
N1286       N  0.91022152  0.95260092  0.42592747    -0.07310
N1287       N  0.87484966  0.94585170  0.42818861    -0.61620
N1288       N  0.95759709  0.90568529  0.40877441    -0.06300
N1289       N  0.95044617  0.87015560  0.40672890    -0.58810
Mn1290     Mn  0.94653050  0.96981377  0.37074718     1.20190
Mn1291     Mn  0.97440526  0.94177740  0.46408462     1.10090
Cl1292     Cl  0.67144108  0.66702527  0.41766666    -0.86780
C1293       C  0.93382558  0.85803768  0.36944209     0.95550
C1294       C  0.86283192  0.92947829  0.46562325     0.95350
C1295       C  0.97033837  0.97290678  0.64627607     0.22780
C1296       C  0.99821114  0.67116428  0.62403973    -0.25330
C1297       C  0.69151286  0.70360063  0.64613515     0.17690
C1298       C  0.69154648  0.70364381  0.68939267     0.22720
C1299       C  0.99827705  0.67125392  0.71159039    -0.25270
C1300       C  0.97036967  0.97295099  0.68945475     0.17620
F1301       F  0.94384914  0.94116492  0.70938379    -0.15230
F1302       F  0.94379347  0.94108153  0.62644656    -0.17590
F1303       F  0.71827882  0.73521833  0.70941562    -0.17590
F1304       F  0.71821365  0.73513863  0.62601141    -0.15230
C1305       C  0.66701251  0.69068386  0.18940663     0.22780
C1306       C  0.67506501  0.99882750  0.21124149    -0.25330
C1307       C  0.68305122  0.97353616  0.18948463     0.17690
C1308       C  0.68309515  0.97358339  0.14613110     0.22720
C1309       C  0.67515768  0.99892533  0.12439811    -0.25270
C1310       C  0.66705801  0.69073211  0.14625655     0.17620
F1311       F  0.99162490  0.71469515  0.12571182    -0.15230
F1312       F  0.99154356  0.71460665  0.20997300    -0.17590
F1313       F  0.69139570  0.94941092  0.12537877    -0.17590
F1314       F  0.69131799  0.94932466  0.21021432    -0.15230
loop_ 
_geom_bond_atom_site_label_1 
_geom_bond_atom_site_label_2 
_geom_bond_distance 
_geom_bond_site_symmetry_2 
_ccdc_geom_bond_type 
C1            C2   1.402       .  A
C1            C6   1.403       .  A
C1           C57   1.467       .  S
C2            C3   1.404       .  A
C2            H7   1.083       .  S
C3            C4   1.404       .  A
C3           C46   1.478       .  S
C4            C5   1.401       .  A
C4            H8   1.083       .  S
C5            C6   1.402       .  A
C5           C68   1.467       .  S
C6            H9   1.085       .  S
C10          C11   1.403       .  A
C10          C15   1.402       .  A
C10          C90   1.467       .  S
C11          C12   1.402       .  A
C11          H16   1.085       .  S
C12          C13   1.401       .  A
C12         C125   1.467       .  S
C13          C14   1.404       .  A
C13          H17   1.083       .  S
C14          C15   1.404       .  A
C14         C101   1.478       .  S
C15          H18   1.083       .  S
C19          C20   1.402       .  A
C19          C24   1.403       .  A
C19          C67   1.467       .  S
C20          C21   1.405       .  A
C20          H25   1.083       .  S
C21          C22   1.404       .  A
C21          C80   1.479       .  S
C22          C23   1.401       .  A
C22          H26   1.083       .  S
C23          C24   1.402       .  A
C23          C56   1.468       .  S
C24          H27   1.085       .  S
C28          C29   1.403       .  A
C28          C33   1.402       .  A
C28         C126   1.467       .  S
C29          C30   1.402       .  A
C29          H34   1.085       .  S
C30          C31   1.401       .  A
C30          C91   1.468       .  S
C31          C32   1.404       .  A
C31          H35   1.083       .  S
C32          C33   1.405       .  A
C32         C113   1.479       .  S
C33          H36   1.083       .  S
N37          N38   1.321       .  A
N37         N627   1.317       .  A
N37         Mn66   2.206   1_554  S
N38         C483   1.352       .  A
N39          N41   1.315       .  A
N39          N40   1.320       .  A
N39        Mn493   2.198       .  S
N40          C46   1.353       .  A
N41          N42   1.321       .  A
N41        Mn358   2.202   1_545  S
N42          C46   1.354       .  A
N43          N44   1.320       .  A
N43        N1205   1.317   1_445  A
N43         Mn55   2.203   1_554  S
N44         C337   1.351   1_545  A
C45         C141   1.468       .  S
C45         N914   1.352   1_455  A
C45         N190   1.351       .  A
N47          N53   1.316       .  A
N47          N48   1.323       .  A
N47         Mn77   2.210       .  S
N48          C56   1.354       .  A
N49          N50   1.323       .  A
N49          N51   1.316       .  A
N49         Mn55   2.211       .  S
N50          C57   1.354       .  A
N51          N52   1.317       .  A
N51         Mn77   2.192       .  S
N52          C57   1.349       .  A
N53          N54   1.317       .  A
N53         Mn55   2.193       .  S
N54          C56   1.349       .  A
Mn55        N915   2.198   1_455  S
Mn55        Cl79   2.544       .  S
N58          N59   1.317       .  A
N58          N64   1.316       .  A
N58         Mn66   2.193       .  S
N59          C67   1.349       .  A
N60          N62   1.316       .  A
N60          N61   1.317       .  A
N60         Mn78   2.192       .  S
N61          C68   1.349       .  A
N62          N63   1.323       .  A
N62         Mn66   2.210       .  S
N63          C68   1.354       .  A
N64          N65   1.323       .  A
N64         Mn78   2.209       .  S
N65          C67   1.354       .  A
Mn66        N187   2.202       .  S
Mn66       Cl663   2.546       .  S
N69          N70   1.321       .  A
N69          N75   1.315       .  A
N69        Mn223   2.201       .  S
N70          C80   1.354       .  A
N71          N72   1.319       .  A
N71         N657   1.315       .  A
N71         Mn78   2.200       .  S
N72         C227   1.353       .  A
N73          N74   1.321       .  A
N73        N1239   1.315   1_445  A
N73         Mn77   2.204       .  S
N74         C957   1.355       .  A
N75          N76   1.320       .  A
N75        Mn954   2.200   1_455  S
N76          C80   1.353       .  A
Mn77        N361   2.201   1_545  S
Mn77        Cl79   2.547       .  S
Mn78        N513   2.200       .  S
Mn78       Cl663   2.543       .  S
Cl79      Mn1234   2.546   1_445  S
Cl79      Mn1246   2.543   1_445  S
C81         C131   1.485       .  S
C81         N364   1.353   1_545  A
C81         N512   1.355       .  A
N82          N83   1.317       .  A
N82          N88   1.316       .  A
N82        Mn111   2.192       .  S
N83          C90   1.349       .  A
N84          N86   1.316       .  A
N84          N85   1.317       .  A
N84        Mn100   2.193       .  S
N85          C91   1.349       .  A
N86          N87   1.323       .  A
N86        Mn111   2.210       .  S
N87          C91   1.354       .  A
N88          N89   1.323       .  A
N88        Mn100   2.211       .  S
N89          C90   1.355       .  A
N92          N98   1.315       .  A
N92          N93   1.321       .  A
N92        Mn414   2.202   1_545  S
N93         C101   1.354       .  A
N94          N95   1.320       .  A
N94        N1264   1.317   1_445  A
N94        Mn100   2.202       .  S
N95         C394   1.351   1_545  A
N96          N97   1.321       .  A
N96         N678   1.317       .  A
N96        Mn122   2.206       .  S
N97         C540   1.352       .  A
N98          N99   1.320       .  A
N98        Mn538   2.198       .  S
N99         C101   1.353       .  A
Mn100       N974   2.198   1_455  S
Mn100      Cl124   2.544       .  S
C102        C138   1.468       .  S
C102        N241   1.351       .  A
C102        N973   1.352   1_455  A
N103        N104   1.321       .  A
N103       N1277   1.315   1_445  A
N103       Mn111   2.203       .  S
N104        C988   1.355       .  A
N105        N107   1.315       .  A
N105        N106   1.320       .  A
N105       Mn999   2.200   1_455  S
N106        C113   1.353       .  A
N107        N108   1.321       .  A
N107       Mn257   2.201       .  S
N108        C113   1.354       .  A
N109        N110   1.319       .  A
N109        N687   1.315       .  A
N109       Mn123   2.200       .  S
N110        C258   1.353       .  A
Mn111       N399   2.201   1_545  S
Mn111      Cl124   2.547       .  S
C112        C128   1.485       .  S
C112        N542   1.355       .  A
C112        N402   1.353   1_545  A
N114        N115   1.323       .  A
N114        N120   1.316       .  A
N114       Mn122   2.210       .  S
N115        C125   1.354       .  A
N116        N117   1.323       .  A
N116        N118   1.316       .  A
N116       Mn123   2.209       .  S
N117        C126   1.354       .  A
N118        N119   1.317       .  A
N118       Mn122   2.193       .  S
N119        C126   1.349       .  A
N120        N121   1.317       .  A
N120       Mn123   2.192       .  S
N121        C125   1.349       .  A
Mn122       N238   2.202       .  S
Mn122      Cl708   2.545       .  S
Mn123       N543   2.200       .  S
Mn123      Cl708   2.544       .  S
Cl124     Mn1290   2.545   1_445  S
Cl124     Mn1291   2.544   1_445  S
C127        C132   1.397       .  A
C127        C274   1.409       .  A
C127        F134   1.358       .  S
C128        C419   1.409   1_545  A
C128        C567   1.408       .  A
C129        C130   1.400       .  A
C129       C1004   1.408   1_455  A
C129        F136   1.358       .  S
C130       C1007   1.408   1_455  A
C130        F135   1.358       .  S
C131        C568   1.408       .  A
C131        C424   1.409   1_545  A
C132        C277   1.409       .  A
C132        F133   1.358       .  S
C137        C142   1.396       .  A
C137        C430   1.403   1_545  A
C137       F1020   1.358   1_455  S
C138        C139   1.404       .  A
C138        C283   1.403       .  A
C139        C140   1.403       .  A
C139        F146   1.357       .  S
C140        C141   1.404       .  A
C140        F145   1.357       .  S
C141        C288   1.403       .  A
C142        C433   1.403   1_545  A
C142       F1019   1.358   1_455  S
F143        C580   1.358       .  S
F144        C575   1.358       .  S
C147        C148   1.402       .  A
C147        C152   1.403       .  A
C147        C203   1.467       .  S
C148        C149   1.404       .  A
C148        H153   1.083       .  S
C149        C150   1.404       .  A
C149        C192   1.478       .  S
C150        C151   1.401       .  A
C150        H154   1.083       .  S
C151        C152   1.402       .  A
C151        C214   1.467       .  S
C152        H155   1.085       .  S
C156        C157   1.403       .  A
C156        C161   1.402       .  A
C156        C236   1.467       .  S
C157        C158   1.402       .  A
C157        H162   1.085       .  S
C158        C159   1.401       .  A
C158        C271   1.467       .  S
C159        C160   1.404       .  A
C159        H163   1.083       .  S
C160        C161   1.404       .  A
C160        C247   1.478       .  S
C161        H164   1.083       .  S
C165        C166   1.402       .  A
C165        C170   1.403       .  A
C165        C213   1.467       .  S
C166        C167   1.405       .  A
C166        H171   1.083       .  S
C167        C168   1.404       .  A
C167        C226   1.479       .  S
C168        C169   1.401       .  A
C168        H172   1.083       .  S
C169        C170   1.402       .  A
C169        C202   1.468       .  S
C170        H173   1.085       .  S
C174        C175   1.403       .  A
C174        C179   1.402       .  A
C174        C272   1.467       .  S
C175        C176   1.402       .  A
C175        H180   1.085       .  S
C176        C177   1.401       .  A
C176        C237   1.468       .  S
C177        C178   1.404       .  A
C177        H181   1.083       .  S
C178        C179   1.405       .  A
C178        C259   1.479       .  S
C179        H182   1.083       .  S
N183        N184   1.321       .  A
N183        N773   1.317       .  A
N183       Mn212   2.206   1_554  S
N184        C629   1.352       .  A
N185        N187   1.315       .  A
N185        N186   1.320       .  A
N185       Mn639   2.198       .  S
N186        C192   1.353       .  A
N187        N188   1.321       .  A
N188        C192   1.354       .  A
N189        N913   1.317   1_455  A
N189        N190   1.320       .  A
N189       Mn201   2.203   1_554  S
C191        C287   1.468       .  S
C191       N1060   1.352   1_455  A
C191        N336   1.351       .  A
N193        N199   1.316       .  A
N193        N194   1.323       .  A
N193       Mn223   2.210       .  S
N194        C202   1.354       .  A
N195        N196   1.323       .  A
N195        N197   1.316       .  A
N195       Mn201   2.211       .  S
N196        C203   1.354       .  A
N197        N198   1.317       .  A
N197       Mn223   2.192       .  S
N198        C203   1.349       .  A
N199        N200   1.317       .  A
N199       Mn201   2.193       .  S
N200        C202   1.349       .  A
Mn201      N1061   2.198   1_455  S
Mn201      Cl225   2.544       .  S
N204        N205   1.317       .  A
N204        N210   1.316       .  A
N204       Mn212   2.193       .  S
N205        C213   1.349       .  A
N206        N208   1.316       .  A
N206        N207   1.317       .  A
N206       Mn224   2.192       .  S
N207        C214   1.349       .  A
N208        N209   1.323       .  A
N208       Mn212   2.210       .  S
N209        C214   1.354       .  A
N210        N211   1.323       .  A
N210       Mn224   2.209       .  S
N211        C213   1.354       .  A
Mn212       N333   2.202       .  S
Mn212      Cl809   2.546       .  S
N215        N216   1.321       .  A
N215        N221   1.315       .  A
N215       Mn369   2.201       .  S
N216        C226   1.354       .  A
N217        N218   1.319       .  A
N217        N803   1.315       .  A
N217       Mn224   2.200       .  S
N218        C373   1.353       .  A
N219        N947   1.315   1_455  A
N219        N220   1.321       .  A
N219       Mn223   2.204       .  S
N220       C1103   1.355       .  A
N221        N222   1.320       .  A
N221      Mn1100   2.200   1_455  S
N222        C226   1.353       .  A
Mn223      Cl225   2.547       .  S
Mn224       N659   2.200       .  S
Mn224      Cl809   2.543       .  S
Cl225      Mn942   2.546   1_455  S
Cl225      Mn954   2.543   1_455  S
C227        C277   1.485       .  S
C227        N658   1.355       .  A
N228        N229   1.317       .  A
N228        N234   1.316       .  A
N228       Mn257   2.192       .  S
N229        C236   1.349       .  A
N230        N232   1.316       .  A
N230        N231   1.317       .  A
N230       Mn246   2.193       .  S
N231        C237   1.349       .  A
N232        N233   1.323       .  A
N232       Mn257   2.210       .  S
N233        C237   1.354       .  A
N234        N235   1.323       .  A
N234       Mn246   2.211       .  S
N235        C236   1.355       .  A
N238        N244   1.315       .  A
N238        N239   1.321       .  A
N239        C247   1.354       .  A
N240        N241   1.320       .  A
N240        N972   1.317   1_455  A
N240       Mn246   2.202       .  S
N242        N824   1.317       .  A
N242        N243   1.321       .  A
N242       Mn268   2.206       .  S
N243        C686   1.352       .  A
N244        N245   1.320       .  A
N244       Mn684   2.198       .  S
N245        C247   1.353       .  A
Mn246      N1120   2.198   1_455  S
Mn246      Cl270   2.544       .  S
C248        C284   1.468       .  S
C248        N387   1.351       .  A
C248       N1119   1.352   1_455  A
N249        N250   1.321       .  A
N249        N985   1.315   1_455  A
N249       Mn257   2.203       .  S
N250       C1134   1.355       .  A
N251        N253   1.315       .  A
N251        N252   1.320       .  A
N251      Mn1145   2.200   1_455  S
N252        C259   1.353       .  A
N253        N254   1.321       .  A
N253       Mn403   2.201       .  S
N254        C259   1.354       .  A
N255        N833   1.315       .  A
N255        N256   1.319       .  A
N255       Mn269   2.200       .  S
N256        C404   1.353       .  A
Mn257      Cl270   2.547       .  S
C258        C274   1.485       .  S
C258        N688   1.355       .  A
N260        N261   1.323       .  A
N260        N266   1.316       .  A
N260       Mn268   2.210       .  S
N261        C271   1.354       .  A
N262        N263   1.323       .  A
N262        N264   1.316       .  A
N262       Mn269   2.209       .  S
N263        C272   1.354       .  A
N264        N265   1.317       .  A
N264       Mn268   2.193       .  S
N265        C272   1.349       .  A
N266        N267   1.317       .  A
N266       Mn269   2.192       .  S
N267        C271   1.349       .  A
Mn268       N384   2.202       .  S
Mn268      Cl854   2.545       .  S
Mn269       N689   2.200       .  S
Mn269      Cl854   2.544       .  S
Cl270      Mn998   2.545   1_455  S
Cl270      Mn999   2.544   1_455  S
C273        C420   1.409       .  A
C273        C278   1.397       .  A
C273        F280   1.358       .  S
C274        C713   1.408       .  A
C275       C1150   1.408   1_455  A
C275        C276   1.400       .  A
C275        F282   1.358       .  S
C276       C1153   1.408   1_455  A
C276        F281   1.358       .  S
C277        C714   1.408       .  A
C278        C423   1.409       .  A
C278        F279   1.358       .  S
C283        C288   1.396       .  A
C283       F1166   1.358   1_455  S
C284        C429   1.403       .  A
C284        C285   1.404       .  A
C285        C286   1.403       .  A
C285        F292   1.357       .  S
C286        C287   1.404       .  A
C286        F291   1.357       .  S
C287        C434   1.403       .  A
C288       F1165   1.358   1_455  S
F289        C726   1.358       .  S
F290        C721   1.358       .  S
C293        C294   1.402       .  A
C293        C298   1.403       .  A
C293        C349   1.467       .  S
C294        C295   1.404       .  A
C294        H299   1.083       .  S
C295        C296   1.404       .  A
C295        C338   1.478       .  S
C296        C297   1.401       .  A
C296        H300   1.083       .  S
C297        C298   1.402       .  A
C297        C360   1.467       .  S
C298        H301   1.085       .  S
C302        C303   1.403       .  A
C302        C307   1.402       .  A
C302        C382   1.467       .  S
C303        C304   1.402       .  A
C303        H308   1.085       .  S
C304        C305   1.401       .  A
C304        C417   1.467       .  S
C305        C306   1.404       .  A
C305        H309   1.083       .  S
C306        C307   1.404       .  A
C306        C393   1.478       .  S
C307        H310   1.083       .  S
C311        C312   1.402       .  A
C311        C316   1.403       .  A
C311        C359   1.467       .  S
C312        C313   1.405       .  A
C312        H317   1.083       .  S
C313        C314   1.404       .  A
C313        C372   1.479       .  S
C314        C315   1.401       .  A
C314        H318   1.083       .  S
C315        C316   1.402       .  A
C315        C348   1.468       .  S
C316        H319   1.085       .  S
C320        C321   1.403       .  A
C320        C325   1.402       .  A
C320        C418   1.467       .  S
C321        C322   1.402       .  A
C321        H326   1.085       .  S
C322        C323   1.401       .  A
C322        C383   1.468       .  S
C323        C324   1.404       .  A
C323        H327   1.083       .  S
C324        C325   1.405       .  A
C324        C405   1.479       .  S
C325        H328   1.083       .  S
N329        N330   1.321       .  A
N329        N481   1.317   1_565  A
N329       Mn358   2.206   1_554  S
N330        C775   1.352       .  A
N331        N333   1.315       .  A
N331        N332   1.320       .  A
N331       Mn785   2.198       .  S
N332        C338   1.353       .  A
N333        N334   1.321       .  A
N334        C338   1.354       .  A
N335       N1059   1.317   1_455  A
N335        N336   1.320       .  A
N335       Mn347   2.203   1_554  S
C337        C433   1.468       .  S
C337       N1206   1.352   1_455  A
N339        N345   1.316       .  A
N339        N340   1.323       .  A
N339       Mn369   2.210       .  S
N340        C348   1.354       .  A
N341        N342   1.323       .  A
N341        N343   1.316       .  A
N341       Mn347   2.211       .  S
N342        C349   1.354       .  A
N343        N344   1.317       .  A
N343       Mn369   2.192       .  S
N344        C349   1.349       .  A
N345        N346   1.317       .  A
N345       Mn347   2.193       .  S
N346        C348   1.349       .  A
Mn347      N1207   2.198   1_455  S
Mn347      Cl371   2.544       .  S
N350        N351   1.317       .  A
N350        N356   1.316       .  A
N350       Mn358   2.193       .  S
N351        C359   1.349       .  A
N352        N354   1.316       .  A
N352        N353   1.317       .  A
N352       Mn370   2.192       .  S
N353        C360   1.349       .  A
N354        N355   1.323       .  A
N354       Mn358   2.210       .  S
N355        C360   1.354       .  A
N356        N357   1.323       .  A
N356       Mn370   2.209       .  S
N357        C359   1.354       .  A
Mn358      Cl517   2.546   1_565  S
N361        N362   1.321       .  A
N361        N367   1.315       .  A
N362        C372   1.354       .  A
N363        N364   1.319       .  A
N363        N511   1.315   1_565  A
N363       Mn370   2.200       .  S
N365       N1093   1.315   1_455  A
N365        N366   1.321       .  A
N365       Mn369   2.204       .  S
N366       C1249   1.355       .  A
N367        N368   1.320       .  A
N367      Mn1246   2.200   1_455  S
N368        C372   1.353       .  A
Mn369      Cl371   2.547       .  S
Mn370       N805   2.200       .  S
Mn370      Cl517   2.543   1_565  S
Cl371     Mn1088   2.546   1_455  S
Cl371     Mn1100   2.543   1_455  S
C373        C423   1.485       .  S
C373        N804   1.355       .  A
N374        N375   1.317       .  A
N374        N380   1.316       .  A
N374       Mn403   2.192       .  S
N375        C382   1.349       .  A
N376        N378   1.316       .  A
N376        N377   1.317       .  A
N376       Mn392   2.193       .  S
N377        C383   1.349       .  A
N378        N379   1.323       .  A
N378       Mn403   2.210       .  S
N379        C383   1.354       .  A
N380        N381   1.323       .  A
N380       Mn392   2.211       .  S
N381        C382   1.355       .  A
N384        N390   1.315       .  A
N384        N385   1.321       .  A
N385        C393   1.354       .  A
N386        N387   1.320       .  A
N386       N1118   1.317   1_455  A
N386       Mn392   2.202       .  S
N388        N532   1.317   1_565  A
N388        N389   1.321       .  A
N388       Mn414   2.206       .  S
N389        C832   1.352       .  A
N390        N391   1.320       .  A
N390       Mn830   2.198       .  S
N391        C393   1.353       .  A
Mn392      N1266   2.198   1_455  S
Mn392      Cl416   2.544       .  S
C394        C430   1.468       .  S
C394       N1265   1.352   1_455  A
N395        N396   1.321       .  A
N395       N1131   1.315   1_455  A
N395       Mn403   2.203       .  S
N396       C1280   1.355       .  A
N397        N399   1.315       .  A
N397        N398   1.320       .  A
N397      Mn1291   2.200   1_455  S
N398        C405   1.353       .  A
N399        N400   1.321       .  A
N400        C405   1.354       .  A
N401        N541   1.315   1_565  A
N401        N402   1.319       .  A
N401       Mn415   2.200       .  S
Mn403      Cl416   2.547       .  S
C404        C420   1.485       .  S
C404        N834   1.355       .  A
N406        N407   1.323       .  A
N406        N412   1.316       .  A
N406       Mn414   2.210       .  S
N407        C417   1.354       .  A
N408        N409   1.323       .  A
N408        N410   1.316       .  A
N408       Mn415   2.209       .  S
N409        C418   1.354       .  A
N410        N411   1.317       .  A
N410       Mn414   2.193       .  S
N411        C418   1.349       .  A
N412        N413   1.317       .  A
N412       Mn415   2.192       .  S
N413        C417   1.349       .  A
Mn414      Cl562   2.545   1_565  S
Mn415       N835   2.200       .  S
Mn415      Cl562   2.544   1_565  S
Cl416     Mn1144   2.545   1_455  S
Cl416     Mn1145   2.544   1_455  S
C419        C424   1.397       .  A
C419        F426   1.358       .  S
C420        C859   1.408       .  A
C421       C1296   1.408   1_455  A
C421        C422   1.400       .  A
C421        F428   1.358       .  S
C422       C1299   1.408   1_455  A
C422        F427   1.358       .  S
C423        C860   1.408       .  A
C424        F425   1.358       .  S
C429        C434   1.396       .  A
C429       F1312   1.358   1_455  S
C430        C431   1.404       .  A
C431        C432   1.403       .  A
C431        F438   1.357       .  S
C432        C433   1.404       .  A
C432        F437   1.357       .  S
C434       F1311   1.358   1_455  S
F435        C872   1.358       .  S
F436        C867   1.358       .  S
C439        C440   1.402       .  A
C439        C444   1.403       .  A
C439        C495   1.467       .  S
C440        C441   1.404       .  A
C440        H445   1.083       .  S
C441        C442   1.404       .  A
C441        C484   1.478       .  S
C442        C443   1.401       .  A
C442        H446   1.083       .  S
C443        C444   1.402       .  A
C443        C506   1.467       .  S
C444        H447   1.085       .  S
C448        C449   1.403       .  A
C448        C453   1.402       .  A
C448        C528   1.467       .  S
C449        C450   1.402       .  A
C449        H454   1.085       .  S
C450        C451   1.401       .  A
C450        C563   1.467       .  S
C451        C452   1.404       .  A
C451        H455   1.083       .  S
C452        C453   1.404       .  A
C452        C539   1.478       .  S
C453        H456   1.083       .  S
C457        C458   1.402       .  A
C457        C462   1.403       .  A
C457        C505   1.467       .  S
C458        C459   1.405       .  A
C458        H463   1.083       .  S
C459        C460   1.404       .  A
C459        C518   1.479       .  S
C460        C461   1.401       .  A
C460        H464   1.083       .  S
C461        C462   1.402       .  A
C461        C494   1.468       .  S
C462        H465   1.085       .  S
C466        C467   1.403       .  A
C466        C471   1.402       .  A
C466        C564   1.467       .  S
C467        C468   1.402       .  A
C467        H472   1.085       .  S
C468        C469   1.401       .  A
C468        C529   1.468       .  S
C469        C470   1.404       .  A
C469        H473   1.083       .  S
C470        C471   1.405       .  A
C470        C551   1.479       .  S
C471        H474   1.083       .  S
N475        N476   1.321       .  A
N475       N1065   1.317       .  A
N475       Mn504   2.206   1_554  S
N476        C921   1.352       .  A
N477        N479   1.315       .  A
N477        N478   1.320       .  A
N477       Mn931   2.198       .  S
N478        C484   1.353       .  A
N479        N480   1.321       .  A
N479       Mn796   2.202   1_545  S
N480        C484   1.354       .  A
N481        N482   1.320       .  A
N481       Mn493   2.203   1_554  S
N482        C775   1.351   1_545  A
C483        C579   1.468       .  S
C483        N628   1.351       .  A
N485        N491   1.316       .  A
N485        N486   1.323       .  A
N485       Mn515   2.210       .  S
N486        C494   1.354       .  A
N487        N488   1.323       .  A
N487        N489   1.316       .  A
N487       Mn493   2.211       .  S
N488        C495   1.354       .  A
N489        N490   1.317       .  A
N489       Mn515   2.192       .  S
N490        C495   1.349       .  A
N491        N492   1.317       .  A
N491       Mn493   2.193       .  S
N492        C494   1.349       .  A
Mn493      Cl517   2.544       .  S
N496        N497   1.317       .  A
N496        N502   1.316       .  A
N496       Mn504   2.193       .  S
N497        C505   1.349       .  A
N498        N500   1.316       .  A
N498        N499   1.317       .  A
N498       Mn516   2.192       .  S
N499        C506   1.349       .  A
N500        N501   1.323       .  A
N500       Mn504   2.210       .  S
N501        C506   1.354       .  A
N502        N503   1.323       .  A
N502       Mn516   2.209       .  S
N503        C505   1.354       .  A
Mn504       N625   2.202       .  S
Mn504     Cl1101   2.546       .  S
N507        N508   1.321       .  A
N507        N513   1.315       .  A
N507       Mn661   2.201       .  S
N508        C518   1.354       .  A
N509        N510   1.319       .  A
N509       N1095   1.315       .  A
N509       Mn516   2.200       .  S
N510        C665   1.353       .  A
N511        N512   1.321       .  A
N511       Mn515   2.204       .  S
N513        N514   1.320       .  A
N514        C518   1.353       .  A
Mn515       N799   2.201   1_545  S
Mn515      Cl517   2.547       .  S
Mn516       N951   2.200       .  S
Mn516     Cl1101   2.543       .  S
C519        C569   1.485       .  S
C519        N802   1.353   1_545  A
C519        N950   1.355       .  A
N520        N521   1.317       .  A
N520        N526   1.316       .  A
N520       Mn549   2.192       .  S
N521        C528   1.349       .  A
N522        N524   1.316       .  A
N522        N523   1.317       .  A
N522       Mn538   2.193       .  S
N523        C529   1.349       .  A
N524        N525   1.323       .  A
N524       Mn549   2.210       .  S
N525        C529   1.354       .  A
N526        N527   1.323       .  A
N526       Mn538   2.211       .  S
N527        C528   1.355       .  A
N530        N536   1.315       .  A
N530        N531   1.321       .  A
N530       Mn852   2.202   1_545  S
N531        C539   1.354       .  A
N532        N533   1.320       .  A
N532       Mn538   2.202       .  S
N533        C832   1.351   1_545  A
N534       N1116   1.317       .  A
N534        N535   1.321       .  A
N534       Mn560   2.206       .  S
N535        C978   1.352       .  A
N536        N537   1.320       .  A
N536       Mn976   2.198       .  S
N537        C539   1.353       .  A
Mn538      Cl562   2.544       .  S
C540        C576   1.468       .  S
C540        N679   1.351       .  A
N541        N542   1.321       .  A
N541       Mn549   2.203       .  S
N543        N545   1.315       .  A
N543        N544   1.320       .  A
N544        C551   1.353       .  A
N545        N546   1.321       .  A
N545       Mn695   2.201       .  S
N546        C551   1.354       .  A
N547       N1125   1.315       .  A
N547        N548   1.319       .  A
N547       Mn561   2.200       .  S
N548        C696   1.353       .  A
Mn549       N837   2.201   1_545  S
Mn549      Cl562   2.547       .  S
C550        C566   1.485       .  S
C550        N980   1.355       .  A
C550        N840   1.353   1_545  A
N552        N553   1.323       .  A
N552        N558   1.316       .  A
N552       Mn560   2.210       .  S
N553        C563   1.354       .  A
N554        N555   1.323       .  A
N554        N556   1.316       .  A
N554       Mn561   2.209       .  S
N555        C564   1.354       .  A
N556        N557   1.317       .  A
N556       Mn560   2.193       .  S
N557        C564   1.349       .  A
N558        N559   1.317       .  A
N558       Mn561   2.192       .  S
N559        C563   1.349       .  A
Mn560       N676   2.202       .  S
Mn560     Cl1146   2.545       .  S
Mn561       N981   2.200       .  S
Mn561     Cl1146   2.544       .  S
C565        C712   1.409       .  A
C565        C570   1.397       .  A
C565        F572   1.358       .  S
C566        C857   1.409   1_545  A
C566       C1005   1.408       .  A
C567        C568   1.400       .  A
C567        F574   1.358       .  S
C568        F573   1.358       .  S
C569       C1006   1.408       .  A
C569        C862   1.409   1_545  A
C570        C715   1.409       .  A
C570        F571   1.358       .  S
C575        C868   1.403   1_545  A
C575        C580   1.396       .  A
C576        C721   1.403       .  A
C576        C577   1.404       .  A
C577        C578   1.403       .  A
C577        F584   1.357       .  S
C578        C579   1.404       .  A
C578        F583   1.357       .  S
C579        C726   1.403       .  A
C580        C871   1.403   1_545  A
F581       C1018   1.358       .  S
F582       C1013   1.358       .  S
C585        C586   1.402       .  A
C585        C590   1.403       .  A
C585        C641   1.467       .  S
C586        C587   1.404       .  A
C586        H591   1.083       .  S
C587        C588   1.404       .  A
C587        C630   1.478       .  S
C588        C589   1.401       .  A
C588        H592   1.083       .  S
C589        C590   1.402       .  A
C589        C652   1.467       .  S
C590        H593   1.085       .  S
C594        C595   1.403       .  A
C594        C599   1.402       .  A
C594        C674   1.467       .  S
C595        C596   1.402       .  A
C595        H600   1.085       .  S
C596        C597   1.401       .  A
C596        C709   1.467       .  S
C597        C598   1.404       .  A
C597        H601   1.083       .  S
C598        C599   1.404       .  A
C598        C685   1.478       .  S
C599        H602   1.083       .  S
C603        C604   1.402       .  A
C603        C608   1.403       .  A
C603        C651   1.467       .  S
C604        C605   1.405       .  A
C604        H609   1.083       .  S
C605        C606   1.404       .  A
C605        C664   1.479       .  S
C606        C607   1.401       .  A
C606        H610   1.083       .  S
C607        C608   1.402       .  A
C607        C640   1.468       .  S
C608        H611   1.085       .  S
C612        C613   1.403       .  A
C612        C617   1.402       .  A
C612        C710   1.467       .  S
C613        C614   1.402       .  A
C613        H618   1.085       .  S
C614        C615   1.401       .  A
C614        C675   1.468       .  S
C615        C616   1.404       .  A
C615        H619   1.083       .  S
C616        C617   1.405       .  A
C616        C697   1.479       .  S
C617        H620   1.083       .  S
N621        N622   1.321       .  A
N621       N1211   1.317       .  A
N621       Mn650   2.206   1_554  S
N622       C1067   1.352       .  A
N623        N625   1.315       .  A
N623        N624   1.320       .  A
N623      Mn1077   2.198       .  S
N624        C630   1.353       .  A
N625        N626   1.321       .  A
N626        C630   1.354       .  A
N627        N628   1.320       .  A
N627       Mn639   2.203   1_554  S
C629        C725   1.468       .  S
C629        N774   1.351       .  A
N631        N637   1.316       .  A
N631        N632   1.323       .  A
N631       Mn661   2.210       .  S
N632        C640   1.354       .  A
N633        N634   1.323       .  A
N633        N635   1.316       .  A
N633       Mn639   2.211       .  S
N634        C641   1.354       .  A
N635        N636   1.317       .  A
N635       Mn661   2.192       .  S
N636        C641   1.349       .  A
N637        N638   1.317       .  A
N637       Mn639   2.193       .  S
N638        C640   1.349       .  A
Mn639      Cl663   2.544       .  S
N642        N643   1.317       .  A
N642        N648   1.316       .  A
N642       Mn650   2.193       .  S
N643        C651   1.349       .  A
N644        N646   1.316       .  A
N644        N645   1.317       .  A
N644       Mn662   2.192       .  S
N645        C652   1.349       .  A
N646        N647   1.323       .  A
N646       Mn650   2.210       .  S
N647        C652   1.354       .  A
N648        N649   1.323       .  A
N648       Mn662   2.209       .  S
N649        C651   1.354       .  A
Mn650       N771   2.202       .  S
Mn650     Cl1247   2.546       .  S
N653        N654   1.321       .  A
N653        N659   1.315       .  A
N653       Mn807   2.201       .  S
N654        C664   1.354       .  A
N655        N656   1.319       .  A
N655       N1241   1.315       .  A
N655       Mn662   2.200       .  S
N656        C811   1.353       .  A
N657        N658   1.321       .  A
N657       Mn661   2.204       .  S
N659        N660   1.320       .  A
N660        C664   1.353       .  A
Mn661      Cl663   2.547       .  S
Mn662      N1097   2.200       .  S
Mn662     Cl1247   2.543       .  S
C665        C715   1.485       .  S
C665       N1096   1.355       .  A
N666        N667   1.317       .  A
N666        N672   1.316       .  A
N666       Mn695   2.192       .  S
N667        C674   1.349       .  A
N668        N670   1.316       .  A
N668        N669   1.317       .  A
N668       Mn684   2.193       .  S
N669        C675   1.349       .  A
N670        N671   1.323       .  A
N670       Mn695   2.210       .  S
N671        C675   1.354       .  A
N672        N673   1.323       .  A
N672       Mn684   2.211       .  S
N673        C674   1.355       .  A
N676        N682   1.315       .  A
N676        N677   1.321       .  A
N677        C685   1.354       .  A
N678        N679   1.320       .  A
N678       Mn684   2.202       .  S
N680       N1262   1.317       .  A
N680        N681   1.321       .  A
N680       Mn706   2.206       .  S
N681       C1124   1.352       .  A
N682        N683   1.320       .  A
N682      Mn1122   2.198       .  S
N683        C685   1.353       .  A
Mn684      Cl708   2.544       .  S
C686        C722   1.468       .  S
C686        N825   1.351       .  A
N687        N688   1.321       .  A
N687       Mn695   2.203       .  S
N689        N691   1.315       .  A
N689        N690   1.320       .  A
N690        C697   1.353       .  A
N691        N692   1.321       .  A
N691       Mn841   2.201       .  S
N692        C697   1.354       .  A
N693       N1271   1.315       .  A
N693        N694   1.319       .  A
N693       Mn707   2.200       .  S
N694        C842   1.353       .  A
Mn695      Cl708   2.547       .  S
C696        C712   1.485       .  S
C696       N1126   1.355       .  A
N698        N699   1.323       .  A
N698        N704   1.316       .  A
N698       Mn706   2.210       .  S
N699        C709   1.354       .  A
N700        N701   1.323       .  A
N700        N702   1.316       .  A
N700       Mn707   2.209       .  S
N701        C710   1.354       .  A
N702        N703   1.317       .  A
N702       Mn706   2.193       .  S
N703        C710   1.349       .  A
N704        N705   1.317       .  A
N704       Mn707   2.192       .  S
N705        C709   1.349       .  A
Mn706       N822   2.202       .  S
Mn706     Cl1292   2.545       .  S
Mn707      N1127   2.200       .  S
Mn707     Cl1292   2.544       .  S
C711        C858   1.409       .  A
C711        C716   1.397       .  A
C711        F718   1.358       .  S
C712       C1151   1.408       .  A
C713        C714   1.400       .  A
C713        F720   1.358       .  S
C714        F719   1.358       .  S
C715       C1152   1.408       .  A
C716        C861   1.409       .  A
C716        F717   1.358       .  S
C721        C726   1.396       .  A
C722        C867   1.403       .  A
C722        C723   1.404       .  A
C723        C724   1.403       .  A
C723        F730   1.357       .  S
C724        C725   1.404       .  A
C724        F729   1.357       .  S
C725        C872   1.403       .  A
F727       C1164   1.358       .  S
F728       C1159   1.358       .  S
C731        C732   1.402       .  A
C731        C736   1.403       .  A
C731        C787   1.467       .  S
C732        C733   1.404       .  A
C732        H737   1.083       .  S
C733        C734   1.404       .  A
C733        C776   1.478       .  S
C734        C735   1.401       .  A
C734        H738   1.083       .  S
C735        C736   1.402       .  A
C735        C798   1.467       .  S
C736        H739   1.085       .  S
C740        C741   1.403       .  A
C740        C745   1.402       .  A
C740        C820   1.467       .  S
C741        C742   1.402       .  A
C741        H746   1.085       .  S
C742        C743   1.401       .  A
C742        C855   1.467       .  S
C743        C744   1.404       .  A
C743        H747   1.083       .  S
C744        C745   1.404       .  A
C744        C831   1.478       .  S
C745        H748   1.083       .  S
C749        C750   1.402       .  A
C749        C754   1.403       .  A
C749        C797   1.467       .  S
C750        C751   1.405       .  A
C750        H755   1.083       .  S
C751        C752   1.404       .  A
C751        C810   1.479       .  S
C752        C753   1.401       .  A
C752        H756   1.083       .  S
C753        C754   1.402       .  A
C753        C786   1.468       .  S
C754        H757   1.085       .  S
C758        C759   1.403       .  A
C758        C763   1.402       .  A
C758        C856   1.467       .  S
C759        C760   1.402       .  A
C759        H764   1.085       .  S
C760        C761   1.401       .  A
C760        C821   1.468       .  S
C761        C762   1.404       .  A
C761        H765   1.083       .  S
C762        C763   1.405       .  A
C762        C843   1.479       .  S
C763        H766   1.083       .  S
N767        N768   1.321       .  A
N767        N919   1.317   1_565  A
N767       Mn796   2.206   1_554  S
N768       C1213   1.352       .  A
N769        N771   1.315       .  A
N769        N770   1.320       .  A
N769      Mn1223   2.198       .  S
N770        C776   1.353       .  A
N771        N772   1.321       .  A
N772        C776   1.354       .  A
N773        N774   1.320       .  A
N773       Mn785   2.203   1_554  S
C775        C871   1.468       .  S
N777        N783   1.316       .  A
N777        N778   1.323       .  A
N777       Mn807   2.210       .  S
N778        C786   1.354       .  A
N779        N780   1.323       .  A
N779        N781   1.316       .  A
N779       Mn785   2.211       .  S
N780        C787   1.354       .  A
N781        N782   1.317       .  A
N781       Mn807   2.192       .  S
N782        C787   1.349       .  A
N783        N784   1.317       .  A
N783       Mn785   2.193       .  S
N784        C786   1.349       .  A
Mn785      Cl809   2.544       .  S
N788        N789   1.317       .  A
N788        N794   1.316       .  A
N788       Mn796   2.193       .  S
N789        C797   1.349       .  A
N790        N792   1.316       .  A
N790        N791   1.317       .  A
N790       Mn808   2.192       .  S
N791        C798   1.349       .  A
N792        N793   1.323       .  A
N792       Mn796   2.210       .  S
N793        C798   1.354       .  A
N794        N795   1.323       .  A
N794       Mn808   2.209       .  S
N795        C797   1.354       .  A
Mn796      Cl955   2.546   1_565  S
N799        N800   1.321       .  A
N799        N805   1.315       .  A
N800        C810   1.354       .  A
N801        N802   1.319       .  A
N801        N949   1.315   1_565  A
N801       Mn808   2.200       .  S
N803        N804   1.321       .  A
N803       Mn807   2.204       .  S
N805        N806   1.320       .  A
N806        C810   1.353       .  A
Mn807      Cl809   2.547       .  S
Mn808      N1243   2.200       .  S
Mn808      Cl955   2.543   1_565  S
C811        C861   1.485       .  S
C811       N1242   1.355       .  A
N812        N813   1.317       .  A
N812        N818   1.316       .  A
N812       Mn841   2.192       .  S
N813        C820   1.349       .  A
N814        N816   1.316       .  A
N814        N815   1.317       .  A
N814       Mn830   2.193       .  S
N815        C821   1.349       .  A
N816        N817   1.323       .  A
N816       Mn841   2.210       .  S
N817        C821   1.354       .  A
N818        N819   1.323       .  A
N818       Mn830   2.211       .  S
N819        C820   1.355       .  A
N822        N828   1.315       .  A
N822        N823   1.321       .  A
N823        C831   1.354       .  A
N824        N825   1.320       .  A
N824       Mn830   2.202       .  S
N826        N970   1.317   1_565  A
N826        N827   1.321       .  A
N826       Mn852   2.206       .  S
N827       C1270   1.352       .  A
N828        N829   1.320       .  A
N828      Mn1268   2.198       .  S
N829        C831   1.353       .  A
Mn830      Cl854   2.544       .  S
C832        C868   1.468       .  S
N833        N834   1.321       .  A
N833       Mn841   2.203       .  S
N835        N837   1.315       .  A
N835        N836   1.320       .  A
N836        C843   1.353       .  A
N837        N838   1.321       .  A
N838        C843   1.354       .  A
N839        N979   1.315   1_565  A
N839        N840   1.319       .  A
N839       Mn853   2.200       .  S
Mn841      Cl854   2.547       .  S
C842        C858   1.485       .  S
C842       N1272   1.355       .  A
N844        N845   1.323       .  A
N844        N850   1.316       .  A
N844       Mn852   2.210       .  S
N845        C855   1.354       .  A
N846        N847   1.323       .  A
N846        N848   1.316       .  A
N846       Mn853   2.209       .  S
N847        C856   1.354       .  A
N848        N849   1.317       .  A
N848       Mn852   2.193       .  S
N849        C856   1.349       .  A
N850        N851   1.317       .  A
N850       Mn853   2.192       .  S
N851        C855   1.349       .  A
Mn852     Cl1000   2.545   1_565  S
Mn853      N1273   2.200       .  S
Mn853     Cl1000   2.544   1_565  S
C857        C862   1.397       .  A
C857        F864   1.358       .  S
C858       C1297   1.408       .  A
C859        C860   1.400       .  A
C859        F866   1.358       .  S
C860        F865   1.358       .  S
C861       C1298   1.408       .  A
C862        F863   1.358       .  S
C867        C872   1.396       .  A
C868        C869   1.404       .  A
C869        C870   1.403       .  A
C869        F876   1.357       .  S
C870        C871   1.404       .  A
C870        F875   1.357       .  S
F873       C1310   1.358       .  S
F874       C1305   1.358       .  S
C877        C878   1.402       .  A
C877        C882   1.403       .  A
C877        C933   1.467       .  S
C878        C879   1.404       .  A
C878        H883   1.083       .  S
C879        C880   1.404       .  A
C879        C922   1.478       .  S
C880        C881   1.401       .  A
C880        H884   1.083       .  S
C881        C882   1.402       .  A
C881        C944   1.467       .  S
C882        H885   1.085       .  S
C886        C887   1.403       .  A
C886        C891   1.402       .  A
C886        C966   1.467       .  S
C887        C888   1.402       .  A
C887        H892   1.085       .  S
C888        C889   1.401       .  A
C888       C1001   1.467       .  S
C889        C890   1.404       .  A
C889        H893   1.083       .  S
C890        C891   1.404       .  A
C890        C977   1.478       .  S
C891        H894   1.083       .  S
C895        C896   1.402       .  A
C895        C900   1.403       .  A
C895        C943   1.467       .  S
C896        C897   1.405       .  A
C896        H901   1.083       .  S
C897        C898   1.404       .  A
C897        C956   1.479       .  S
C898        C899   1.401       .  A
C898        H902   1.083       .  S
C899        C900   1.402       .  A
C899        C932   1.468       .  S
C900        H903   1.085       .  S
C904        C905   1.403       .  A
C904        C909   1.402       .  A
C904       C1002   1.467       .  S
C905        C906   1.402       .  A
C905        H910   1.085       .  S
C906        C907   1.401       .  A
C906        C967   1.468       .  S
C907        C908   1.404       .  A
C907        H911   1.083       .  S
C908        C909   1.405       .  A
C908        C989   1.479       .  S
C909        H912   1.083       .  S
N913        N914   1.321       .  A
N913       Mn942   2.206   1_554  S
N915        N917   1.315       .  A
N915        N916   1.320       .  A
N916        C922   1.353       .  A
N917        N918   1.321       .  A
N917      Mn1234   2.202   1_545  S
N918        C922   1.354       .  A
N919        N920   1.320       .  A
N919       Mn931   2.203   1_554  S
N920       C1213   1.351   1_545  A
C921       C1017   1.468       .  S
C921       N1066   1.351       .  A
N923        N929   1.316       .  A
N923        N924   1.323       .  A
N923       Mn953   2.210       .  S
N924        C932   1.354       .  A
N925        N926   1.323       .  A
N925        N927   1.316       .  A
N925       Mn931   2.211       .  S
N926        C933   1.354       .  A
N927        N928   1.317       .  A
N927       Mn953   2.192       .  S
N928        C933   1.349       .  A
N929        N930   1.317       .  A
N929       Mn931   2.193       .  S
N930        C932   1.349       .  A
Mn931      Cl955   2.544       .  S
N934        N935   1.317       .  A
N934        N940   1.316       .  A
N934       Mn942   2.193       .  S
N935        C943   1.349       .  A
N936        N938   1.316       .  A
N936        N937   1.317       .  A
N936       Mn954   2.192       .  S
N937        C944   1.349       .  A
N938        N939   1.323       .  A
N938       Mn942   2.210       .  S
N939        C944   1.354       .  A
N940        N941   1.323       .  A
N940       Mn954   2.209       .  S
N941        C943   1.354       .  A
Mn942      N1063   2.202       .  S
N945        N946   1.321       .  A
N945        N951   1.315       .  A
N945      Mn1099   2.201       .  S
N946        C956   1.354       .  A
N947        N948   1.319       .  A
N947       Mn954   2.200       .  S
N948       C1103   1.353   1_655  A
N949        N950   1.321       .  A
N949       Mn953   2.204       .  S
N951        N952   1.320       .  A
N952        C956   1.353       .  A
Mn953      N1237   2.201   1_545  S
Mn953      Cl955   2.547       .  S
C957       C1007   1.485   1_455  S
C957       N1240   1.353   1_445  A
N958        N959   1.317       .  A
N958        N964   1.316       .  A
N958       Mn987   2.192       .  S
N959        C966   1.349       .  A
N960        N962   1.316       .  A
N960        N961   1.317       .  A
N960       Mn976   2.193       .  S
N961        C967   1.349       .  A
N962        N963   1.323       .  A
N962       Mn987   2.210       .  S
N963        C967   1.354       .  A
N964        N965   1.323       .  A
N964       Mn976   2.211       .  S
N965        C966   1.355       .  A
N968        N974   1.315       .  A
N968        N969   1.321       .  A
N968      Mn1290   2.202   1_545  S
N969        C977   1.354       .  A
N970        N971   1.320       .  A
N970       Mn976   2.202       .  S
N971       C1270   1.351   1_545  A
N972        N973   1.321       .  A
N972       Mn998   2.206       .  S
N974        N975   1.320       .  A
N975        C977   1.353       .  A
Mn976     Cl1000   2.544       .  S
C978       C1014   1.468       .  S
C978       N1117   1.351       .  A
N979        N980   1.321       .  A
N979       Mn987   2.203       .  S
N981        N983   1.315       .  A
N981        N982   1.320       .  A
N982        C989   1.353       .  A
N983        N984   1.321       .  A
N983      Mn1133   2.201       .  S
N984        C989   1.354       .  A
N985        N986   1.319       .  A
N985       Mn999   2.200       .  S
N986       C1134   1.353   1_655  A
Mn987      N1275   2.201   1_545  S
Mn987     Cl1000   2.547       .  S
C988       C1004   1.485   1_455  S
C988       N1278   1.353   1_445  A
N990        N991   1.323       .  A
N990        N996   1.316       .  A
N990       Mn998   2.210       .  S
N991       C1001   1.354       .  A
N992        N993   1.323       .  A
N992        N994   1.316       .  A
N992       Mn999   2.209       .  S
N993       C1002   1.354       .  A
N994        N995   1.317       .  A
N994       Mn998   2.193       .  S
N995       C1002   1.349       .  A
N996        N997   1.317       .  A
N996       Mn999   2.192       .  S
N997       C1001   1.349       .  A
Mn998      N1114   2.202       .  S
C1003      C1150   1.409       .  A
C1003      C1008   1.397       .  A
C1003      F1010   1.358       .  S
C1004      C1295   1.409   1_545  A
C1005      C1006   1.400       .  A
C1005      F1012   1.358       .  S
C1006      F1011   1.358       .  S
C1007      C1300   1.409   1_545  A
C1008      C1153   1.409       .  A
C1008      F1009   1.358       .  S
C1013      C1306   1.403   1_545  A
C1013      C1018   1.396       .  A
C1014      C1159   1.403       .  A
C1014      C1015   1.404       .  A
C1015      C1016   1.403       .  A
C1015      F1022   1.357       .  S
C1016      C1017   1.404       .  A
C1016      F1021   1.357       .  S
C1017      C1164   1.403       .  A
C1018      C1309   1.403   1_545  A
C1023      C1024   1.402       .  A
C1023      C1028   1.403       .  A
C1023      C1079   1.467       .  S
C1024      C1025   1.404       .  A
C1024      H1029   1.083       .  S
C1025      C1026   1.404       .  A
C1025      C1068   1.478       .  S
C1026      C1027   1.401       .  A
C1026      H1030   1.083       .  S
C1027      C1028   1.402       .  A
C1027      C1090   1.467       .  S
C1028      H1031   1.085       .  S
C1032      C1033   1.403       .  A
C1032      C1037   1.402       .  A
C1032      C1112   1.467       .  S
C1033      C1034   1.402       .  A
C1033      H1038   1.085       .  S
C1034      C1035   1.401       .  A
C1034      C1147   1.467       .  S
C1035      C1036   1.404       .  A
C1035      H1039   1.083       .  S
C1036      C1037   1.404       .  A
C1036      C1123   1.478       .  S
C1037      H1040   1.083       .  S
C1041      C1042   1.402       .  A
C1041      C1046   1.403       .  A
C1041      C1089   1.467       .  S
C1042      C1043   1.405       .  A
C1042      H1047   1.083       .  S
C1043      C1044   1.404       .  A
C1043      C1102   1.479       .  S
C1044      C1045   1.401       .  A
C1044      H1048   1.083       .  S
C1045      C1046   1.402       .  A
C1045      C1078   1.468       .  S
C1046      H1049   1.085       .  S
C1050      C1051   1.403       .  A
C1050      C1055   1.402       .  A
C1050      C1148   1.467       .  S
C1051      C1052   1.402       .  A
C1051      H1056   1.085       .  S
C1052      C1053   1.401       .  A
C1052      C1113   1.468       .  S
C1053      C1054   1.404       .  A
C1053      H1057   1.083       .  S
C1054      C1055   1.405       .  A
C1054      C1135   1.479       .  S
C1055      H1058   1.083       .  S
N1059      N1060   1.321       .  A
N1059     Mn1088   2.206   1_554  S
N1061      N1063   1.315       .  A
N1061      N1062   1.320       .  A
N1062      C1068   1.353       .  A
N1063      N1064   1.321       .  A
N1064      C1068   1.354       .  A
N1065      N1066   1.320       .  A
N1065     Mn1077   2.203   1_554  S
C1067      C1163   1.468       .  S
C1067      N1212   1.351       .  A
N1069      N1075   1.316       .  A
N1069      N1070   1.323       .  A
N1069     Mn1099   2.210       .  S
N1070      C1078   1.354       .  A
N1071      N1072   1.323       .  A
N1071      N1073   1.316       .  A
N1071     Mn1077   2.211       .  S
N1072      C1079   1.354       .  A
N1073      N1074   1.317       .  A
N1073     Mn1099   2.192       .  S
N1074      C1079   1.349       .  A
N1075      N1076   1.317       .  A
N1075     Mn1077   2.193       .  S
N1076      C1078   1.349       .  A
Mn1077    Cl1101   2.544       .  S
N1080      N1081   1.317       .  A
N1080      N1086   1.316       .  A
N1080     Mn1088   2.193       .  S
N1081      C1089   1.349       .  A
N1082      N1084   1.316       .  A
N1082      N1083   1.317       .  A
N1082     Mn1100   2.192       .  S
N1083      C1090   1.349       .  A
N1084      N1085   1.323       .  A
N1084     Mn1088   2.210       .  S
N1085      C1090   1.354       .  A
N1086      N1087   1.323       .  A
N1086     Mn1100   2.209       .  S
N1087      C1089   1.354       .  A
Mn1088     N1209   2.202       .  S
N1091      N1092   1.321       .  A
N1091      N1097   1.315       .  A
N1091     Mn1245   2.201       .  S
N1092      C1102   1.354       .  A
N1093      N1094   1.319       .  A
N1093     Mn1100   2.200       .  S
N1094      C1249   1.353   1_655  A
N1095      N1096   1.321       .  A
N1095     Mn1099   2.204       .  S
N1097      N1098   1.320       .  A
N1098      C1102   1.353       .  A
Mn1099    Cl1101   2.547       .  S
C1103      C1153   1.485   1_455  S
N1104      N1105   1.317       .  A
N1104      N1110   1.316       .  A
N1104     Mn1133   2.192       .  S
N1105      C1112   1.349       .  A
N1106      N1108   1.316       .  A
N1106      N1107   1.317       .  A
N1106     Mn1122   2.193       .  S
N1107      C1113   1.349       .  A
N1108      N1109   1.323       .  A
N1108     Mn1133   2.210       .  S
N1109      C1113   1.354       .  A
N1110      N1111   1.323       .  A
N1110     Mn1122   2.211       .  S
N1111      C1112   1.355       .  A
N1114      N1120   1.315       .  A
N1114      N1115   1.321       .  A
N1115      C1123   1.354       .  A
N1116      N1117   1.320       .  A
N1116     Mn1122   2.202       .  S
N1118      N1119   1.321       .  A
N1118     Mn1144   2.206       .  S
N1120      N1121   1.320       .  A
N1121      C1123   1.353       .  A
Mn1122    Cl1146   2.544       .  S
C1124      C1160   1.468       .  S
C1124      N1263   1.351       .  A
N1125      N1126   1.321       .  A
N1125     Mn1133   2.203       .  S
N1127      N1129   1.315       .  A
N1127      N1128   1.320       .  A
N1128      C1135   1.353       .  A
N1129      N1130   1.321       .  A
N1129     Mn1279   2.201       .  S
N1130      C1135   1.354       .  A
N1131      N1132   1.319       .  A
N1131     Mn1145   2.200       .  S
N1132      C1280   1.353   1_655  A
Mn1133    Cl1146   2.547       .  S
C1134      C1150   1.485   1_455  S
N1136      N1137   1.323       .  A
N1136      N1142   1.316       .  A
N1136     Mn1144   2.210       .  S
N1137      C1147   1.354       .  A
N1138      N1139   1.323       .  A
N1138      N1140   1.316       .  A
N1138     Mn1145   2.209       .  S
N1139      C1148   1.354       .  A
N1140      N1141   1.317       .  A
N1140     Mn1144   2.193       .  S
N1141      C1148   1.349       .  A
N1142      N1143   1.317       .  A
N1142     Mn1145   2.192       .  S
N1143      C1147   1.349       .  A
Mn1144     N1260   2.202       .  S
C1149      C1296   1.409       .  A
C1149      C1154   1.397       .  A
C1149      F1156   1.358       .  S
C1151      C1152   1.400       .  A
C1151      F1158   1.358       .  S
C1152      F1157   1.358       .  S
C1154      C1299   1.409       .  A
C1154      F1155   1.358       .  S
C1159      C1164   1.396       .  A
C1160      C1305   1.403       .  A
C1160      C1161   1.404       .  A
C1161      C1162   1.403       .  A
C1161      F1168   1.357       .  S
C1162      C1163   1.404       .  A
C1162      F1167   1.357       .  S
C1163      C1310   1.403       .  A
C1169      C1170   1.402       .  A
C1169      C1174   1.403       .  A
C1169      C1225   1.467       .  S
C1170      C1171   1.404       .  A
C1170      H1175   1.083       .  S
C1171      C1172   1.404       .  A
C1171      C1214   1.478       .  S
C1172      C1173   1.401       .  A
C1172      H1176   1.083       .  S
C1173      C1174   1.402       .  A
C1173      C1236   1.467       .  S
C1174      H1177   1.085       .  S
C1178      C1179   1.403       .  A
C1178      C1183   1.402       .  A
C1178      C1258   1.467       .  S
C1179      C1180   1.402       .  A
C1179      H1184   1.085       .  S
C1180      C1181   1.401       .  A
C1180      C1293   1.467       .  S
C1181      C1182   1.404       .  A
C1181      H1185   1.083       .  S
C1182      C1183   1.404       .  A
C1182      C1269   1.478       .  S
C1183      H1186   1.083       .  S
C1187      C1188   1.402       .  A
C1187      C1192   1.403       .  A
C1187      C1235   1.467       .  S
C1188      C1189   1.405       .  A
C1188      H1193   1.083       .  S
C1189      C1190   1.404       .  A
C1189      C1248   1.479       .  S
C1190      C1191   1.401       .  A
C1190      H1194   1.083       .  S
C1191      C1192   1.402       .  A
C1191      C1224   1.468       .  S
C1192      H1195   1.085       .  S
C1196      C1197   1.403       .  A
C1196      C1201   1.402       .  A
C1196      C1294   1.467       .  S
C1197      C1198   1.402       .  A
C1197      H1202   1.085       .  S
C1198      C1199   1.401       .  A
C1198      C1259   1.468       .  S
C1199      C1200   1.404       .  A
C1199      H1203   1.083       .  S
C1200      C1201   1.405       .  A
C1200      C1281   1.479       .  S
C1201      H1204   1.083       .  S
N1205      N1206   1.321       .  A
N1205     Mn1234   2.206   1_554  S
N1207      N1209   1.315       .  A
N1207      N1208   1.320       .  A
N1208      C1214   1.353       .  A
N1209      N1210   1.321       .  A
N1210      C1214   1.354       .  A
N1211      N1212   1.320       .  A
N1211     Mn1223   2.203   1_554  S
C1213      C1309   1.468       .  S
N1215      N1221   1.316       .  A
N1215      N1216   1.323       .  A
N1215     Mn1245   2.210       .  S
N1216      C1224   1.354       .  A
N1217      N1218   1.323       .  A
N1217      N1219   1.316       .  A
N1217     Mn1223   2.211       .  S
N1218      C1225   1.354       .  A
N1219      N1220   1.317       .  A
N1219     Mn1245   2.192       .  S
N1220      C1225   1.349       .  A
N1221      N1222   1.317       .  A
N1221     Mn1223   2.193       .  S
N1222      C1224   1.349       .  A
Mn1223    Cl1247   2.544       .  S
N1226      N1227   1.317       .  A
N1226      N1232   1.316       .  A
N1226     Mn1234   2.193       .  S
N1227      C1235   1.349       .  A
N1228      N1230   1.316       .  A
N1228      N1229   1.317       .  A
N1228     Mn1246   2.192       .  S
N1229      C1236   1.349       .  A
N1230      N1231   1.323       .  A
N1230     Mn1234   2.210       .  S
N1231      C1236   1.354       .  A
N1232      N1233   1.323       .  A
N1232     Mn1246   2.209       .  S
N1233      C1235   1.354       .  A
N1237      N1238   1.321       .  A
N1237      N1243   1.315       .  A
N1238      C1248   1.354       .  A
N1239      N1240   1.319       .  A
N1239     Mn1246   2.200       .  S
N1241      N1242   1.321       .  A
N1241     Mn1245   2.204       .  S
N1243      N1244   1.320       .  A
N1244      C1248   1.353       .  A
Mn1245    Cl1247   2.547       .  S
C1249      C1299   1.485   1_455  S
N1250      N1251   1.317       .  A
N1250      N1256   1.316       .  A
N1250     Mn1279   2.192       .  S
N1251      C1258   1.349       .  A
N1252      N1254   1.316       .  A
N1252      N1253   1.317       .  A
N1252     Mn1268   2.193       .  S
N1253      C1259   1.349       .  A
N1254      N1255   1.323       .  A
N1254     Mn1279   2.210       .  S
N1255      C1259   1.354       .  A
N1256      N1257   1.323       .  A
N1256     Mn1268   2.211       .  S
N1257      C1258   1.355       .  A
N1260      N1266   1.315       .  A
N1260      N1261   1.321       .  A
N1261      C1269   1.354       .  A
N1262      N1263   1.320       .  A
N1262     Mn1268   2.202       .  S
N1264      N1265   1.321       .  A
N1264     Mn1290   2.206       .  S
N1266      N1267   1.320       .  A
N1267      C1269   1.353       .  A
Mn1268    Cl1292   2.544       .  S
C1270      C1306   1.468       .  S
N1271      N1272   1.321       .  A
N1271     Mn1279   2.203       .  S
N1273      N1275   1.315       .  A
N1273      N1274   1.320       .  A
N1274      C1281   1.353       .  A
N1275      N1276   1.321       .  A
N1276      C1281   1.354       .  A
N1277      N1278   1.319       .  A
N1277     Mn1291   2.200       .  S
Mn1279    Cl1292   2.547       .  S
C1280      C1296   1.485   1_455  S
N1282      N1283   1.323       .  A
N1282      N1288   1.316       .  A
N1282     Mn1290   2.210       .  S
N1283      C1293   1.354       .  A
N1284      N1285   1.323       .  A
N1284      N1286   1.316       .  A
N1284     Mn1291   2.209       .  S
N1285      C1294   1.354       .  A
N1286      N1287   1.317       .  A
N1286     Mn1290   2.193       .  S
N1287      C1294   1.349       .  A
N1288      N1289   1.317       .  A
N1288     Mn1291   2.192       .  S
N1289      C1293   1.349       .  A
C1295      C1300   1.397       .  A
C1295      F1302   1.358       .  S
C1297      C1298   1.400       .  A
C1297      F1304   1.358       .  S
C1298      F1303   1.358       .  S
C1300      F1301   1.358       .  S
C1305      C1310   1.396       .  A
C1306      C1307   1.404       .  A
C1307      C1308   1.403       .  A
C1307      F1314   1.357       .  S
C1308      C1309   1.404       .  A
C1308      F1313   1.357       .  S
