geometry optimzed in LAMMPS
_audit_creation_date              2020-12-01 
_audit_creation_method            'lammps2cif' 
_symmetry_space_group_name_H-M    'P1' 
_symmetry_Int_Tables_number       1 
_symmetry_cell_setting            triclinic 
loop_ 
_symmetry_equiv_pos_as_xyz 
  x,y,z 
_cell_length_a                    29.23726063 
_cell_length_b                    29.24208280677165 
_cell_length_c                    49.915957871960565 
_cell_angle_alpha                 90.00025930068405 
_cell_angle_beta                  89.99956322204461 
_cell_angle_gamma                 90.0334613320796 
loop_ 
_atom_site_label 
_atom_site_type_symbol 
_atom_site_fract_x 
_atom_site_fract_y 
_atom_site_fract_z 
_atom_site_charge 
C1          C  0.20926025  0.00550019  0.32496546     0.07200
C2          C  0.20885590  0.50702039  0.29691332    -0.09100
C3          C  0.24967374  0.50008771  0.28220586     0.04500
C4          C  0.29051914  0.49319775  0.29689139    -0.07700
C5          C  0.29126352  0.99419958  0.32499094     0.07000
C6          C  0.25023842  0.99978469  0.33897348    -0.07100
H7          H  0.17674913  0.51363832  0.28693460     0.12600
H8          H  0.32258292  0.48643276  0.28690371     0.10100
H9          H  0.25021237  0.99975800  0.36071313     0.10000
C10         C  0.29127413  0.00588312  0.20916819     0.07000
C11         C  0.29113518  0.00708078  0.23724934    -0.09100
C12         C  0.24967242  0.49999461  0.25194795     0.04500
C13         C  0.20947829  0.99312200  0.23725914    -0.07700
C14         C  0.20926702  0.99449679  0.20918670     0.07000
C15         C  0.25024946  0.00026603  0.19518188    -0.07100
H16         H  0.32323558  0.01373828  0.24723534     0.12600
H17         H  0.17741740  0.98629469  0.24724472     0.10100
H18         H  0.25022741  0.00030722  0.17344239     0.10000
O19         O  0.00026589  0.04931407  0.10198704    -0.53900
C20         C  0.49674414  0.41351848  0.11474845     0.78700
O21         O  0.04928425  0.48847607  0.18168847    -0.55100
C22         C  0.00347897  0.08652072  0.11476229     0.78700
C23         C  0.41280710  0.50697132  0.16937677     0.81100
Cd24       Cd  0.00018705  0.99969135  0.14206455     1.37500
O25         O  0.49994337  0.45072898  0.10197468    -0.53900
O26         O  0.41566889  0.99896425  0.14446256    -0.52700
C27         C  0.08719897  0.99300255  0.16937396     0.81000
O28         O  0.45072910  0.01144205  0.18172262    -0.55100
O29         O  0.49497371  0.41610305  0.13999643    -0.53600
O30         O  0.00515928  0.08393689  0.14001273    -0.53500
O31         O  0.08432609  0.50131784  0.14446456    -0.52700
O32         O  0.50229213  0.04984535  0.43228038    -0.53900
C33         C  0.00437500  0.41324554  0.41975160     0.78700
O34         O  0.45009766  0.48588822  0.35269769    -0.55100
C35         C  0.49547503  0.08677810  0.41973963     0.78700
C36         C  0.08670166  0.50646592  0.36484281     0.81100
Cd37       Cd  0.50018373  0.00034388  0.39208872     1.37500
O38         O  0.99773394  0.45020117  0.43230309    -0.53900
O39         O  0.08471651  0.99741500  0.38940801    -0.52700
C40         C  0.41329610  0.99350819  0.36482866     0.81000
O41         O  0.04988520  0.01392230  0.35266138    -0.55100
O42         O  0.00879941  0.41593141  0.39463658    -0.53600
O43         O  0.49094396  0.08407793  0.39463154    -0.53500
O44         O  0.41530058  0.50297573  0.38936474    -0.52700
C45         C  0.99694944  0.29121333  0.07516769     0.07000
C46         C  0.00016243  0.25000896  0.08917207    -0.09100
C47         C  0.00331382  0.20880174  0.07516510     0.04500
C48         C  0.00431092  0.20885935  0.04708891    -0.07700
C49         C  0.00004337  0.25000414  0.03227050     0.07000
C50         C  0.99583790  0.29115069  0.04709353    -0.07100
H51         H  0.00020000  0.25001030  0.11090985     0.12600
H52         H  0.00880966  0.17623144  0.03735071     0.10100
H53         H  0.99128622  0.32377576  0.03736137     0.10000
C54         C  0.00462284  0.29106032  0.45919972     0.07000
C55         C  0.00610940  0.29092413  0.48724680    -0.09100
C56         C  0.99996998  0.24999765  0.50195052     0.04500
C57         C  0.99376497  0.20907351  0.48725369    -0.07700
C58         C  0.99512222  0.20894537  0.45920373     0.07000
C59         C  0.99983825  0.25000492  0.44518561    -0.07100
H60         H  0.01232057  0.32314217  0.49712923     0.12600
H61         H  0.98761273  0.17685101  0.49714414     0.10100
H62         H  0.49978074  0.25000595  0.42344884     0.10000
C63         C  0.49298030  0.16620677  0.44489438    -0.09400
C64         C  0.49336518  0.12997060  0.43335529    -0.10900
C65         C  0.00676305  0.33379902  0.44489291    -0.09400
C66         C  0.00641427  0.37004370  0.43336203    -0.10900
C67         C  0.49551381  0.37018417  0.10118181    -0.09400
C68         C  0.49546102  0.33397596  0.08956547    -0.10900
C69         C  0.00480479  0.12984893  0.10119205    -0.09400
C70         C  0.00488835  0.16604741  0.08956533    -0.10900
C71         C  0.33343798  0.50877962  0.19479725    -0.09400
C72         C  0.36957209  0.50906385  0.18307173    -0.10900
C73         C  0.13043593  0.99092043  0.18306692    -0.09400
C74         C  0.16656826  0.99123584  0.19479378    -0.10900
C75         C  0.12995826  0.50874823  0.35118919    -0.09400
C76         C  0.16605836  0.50874508  0.33943144    -0.10900
C77         C  0.37003889  0.99121611  0.35117639    -0.09400
C78         C  0.33393432  0.99122601  0.33942344    -0.10900
C79         C  0.20873716  0.00581471  0.82499153     0.07200
C80         C  0.20948438  0.50682303  0.79689431    -0.09100
C81         C  0.25032985  0.49994650  0.78220684     0.04500
C82         C  0.29114723  0.49299933  0.79691158    -0.07700
C83         C  0.29074182  0.99452137  0.82496267     0.07000
C84         C  0.24976285  0.00022340  0.83897219    -0.07100
H85         H  0.17742191  0.51360002  0.78690872     0.12600
H86         H  0.32325457  0.48639207  0.78693069     0.10100
H87         H  0.24978961  0.00024064  0.86071181     0.10000
C88         C  0.29073545  0.00558141  0.70918482     0.07000
C89         C  0.29052304  0.00694541  0.73725772    -0.09100
C90         C  0.25033274  0.50007428  0.75194954     0.04500
C91         C  0.20886724  0.99297814  0.73724609    -0.07700
C92         C  0.20872906  0.99418703  0.70916490     0.07000
C93         C  0.24975330  0.99981623  0.69517948    -0.07100
H94         H  0.32258377  0.01376861  0.74724421     0.12600
H95         H  0.17676809  0.98631084  0.74723123     0.10100
H96         H  0.24977613  0.99978116  0.67343998     0.10000
O97         O  0.99783950  0.04980647  0.60184467    -0.53900
C98         C  0.49562529  0.41326500  0.61437786     0.78700
O99         O  0.04994122  0.48531304  0.68137349    -0.55100
C100        C  0.00458706  0.08676175  0.61438696     0.78700
C101        C  0.41332597  0.50654143  0.66933564     0.81100
Cd102      Cd  0.99982108  0.00034508  0.64206336     1.37500
O103        O  0.50236868  0.45022622  0.60183944    -0.53900
O104        O  0.41532022  0.99684810  0.64483175    -0.52700
C105        C  0.08669337  0.99344255  0.66933004     0.81000
O106        O  0.45009153  0.01457454  0.68140742    -0.55100
O107        O  0.49109402  0.41594441  0.63948649    -0.53600
O108        O  0.00903003  0.08408419  0.63950113    -0.53500
O109        O  0.08468011  0.50349865  0.64486429    -0.52700
O110        O  0.49993785  0.04934752  0.93214535    -0.53900
C111        C  0.00335921  0.41349259  0.91938139     0.78700
O112        O  0.45071574  0.48903735  0.85241153    -0.55100
C113        C  0.49655085  0.08653246  0.91937098     0.78700
C114        C  0.08720074  0.50689686  0.86477726     0.81100
Cd115      Cd  0.49981818  0.99968849  0.89208854     1.37500
O116        O  0.00013793  0.45068705  0.93216240    -0.53900
O117        O  0.08434751  0.99951162  0.88977439    -0.52700
C118        C  0.41280773  0.99306109  0.86477458     0.81000
O119        O  0.04929379  0.01080602  0.85238744    -0.55100
O120        O  0.00511614  0.41609606  0.89413358    -0.53600
O121        O  0.49468352  0.08392566  0.89412598    -0.53500
O122        O  0.41566737  0.50082537  0.88974861    -0.52700
C123        C  0.99536848  0.29105542  0.57494507     0.07000
C124        C  0.00017137  0.25000497  0.58895967    -0.09100
C125        C  0.00490721  0.20895061  0.57494050     0.04500
C126        C  0.00626627  0.20908387  0.54689070    -0.07700
C127        C  0.00004285  0.24999785  0.53219444     0.07000
C128        C  0.99388384  0.29091413  0.54689805    -0.07100
H129        H  0.00021345  0.25000684  0.61069523     0.12600
H130        H  0.01243309  0.17687205  0.53699923     0.10100
H131        H  0.98765873  0.32312173  0.53701480     0.10000
C132        C  0.00307585  0.29121342  0.95897583     0.07000
C133        C  0.00418999  0.29115395  0.98705003    -0.09100
C134        C  0.99997186  0.25000395  0.00187332     0.04500
C135        C  0.99569010  0.20885515  0.98705455    -0.07700
C136        C  0.99668505  0.20880053  0.95897818     0.07000
C137        C  0.99984845  0.25000830  0.94497205    -0.07100
H138        H  0.00875293  0.32378376  0.99678156     0.12600
H139        H  0.99118140  0.17622314  0.99679194     0.10100
H140        H  0.49978804  0.25001082  0.92323155     0.10000
C141        C  0.49514926  0.16604880  0.94457235    -0.09400
C142        C  0.49523482  0.12985909  0.93293829    -0.10900
C143        C  0.00465621  0.33396401  0.94457280    -0.09400
C144        C  0.00461355  0.37015895  0.93294388    -0.10900
C145        C  0.49359210  0.37005910  0.60076478    -0.09400
C146        C  0.49324647  0.33380013  0.58924633    -0.10900
C147        C  0.00670481  0.12995914  0.60077039    -0.09400
C148        C  0.00707721  0.16620941  0.58924359    -0.10900
C149        C  0.33396908  0.50887406  0.69474187    -0.09400
C150        C  0.37007919  0.50886809  0.68299461    -0.10900
C151        C  0.12994362  0.99113624  0.68298754    -0.09400
C152        C  0.16605249  0.99116582  0.69473675    -0.10900
C153        C  0.13043656  0.50894856  0.85108187    -0.09400
C154        C  0.16656716  0.50865274  0.83935508    -0.10900
C155        C  0.36956881  0.99099371  0.85108220    -0.09400
C156        C  0.33343978  0.99129417  0.83935322    -0.10900
C157        C  0.20872676  0.50579281  0.32499480     0.07200
C158        C  0.20947427  0.00685595  0.29689299    -0.09100
C159        C  0.25031522  0.99995107  0.28220598     0.04500
C160        C  0.29113009  0.99298660  0.29690961    -0.07700
C161        C  0.29073612  0.49454576  0.32496367     0.07000
C162        C  0.24975628  0.50022679  0.33897448    -0.07100
H163        H  0.17741543  0.01364277  0.28690516     0.12600
H164        H  0.32323160  0.98635670  0.28692653     0.10100
H165        H  0.24978533  0.50024677  0.36071410     0.10000
C166        C  0.29073295  0.50555811  0.20918704     0.07000
C167        C  0.29051680  0.50692620  0.23725934    -0.09100
C168        C  0.25031752  0.00006606  0.25194941     0.04500
C169        C  0.20885333  0.49300882  0.23724386    -0.07700
C170        C  0.20872044  0.49422147  0.20916256     0.07000
C171        C  0.24975011  0.49982145  0.19517934    -0.07100
H172        H  0.32258144  0.51373317  0.24724478     0.12600
H173        H  0.17674734  0.48636082  0.24722536     0.10100
H174        H  0.24977664  0.49978595  0.17343981     0.10000
O175        O  0.99778025  0.54980412  0.10183150    -0.53900
C176        C  0.49544597  0.91327496  0.11438887     0.78700
O177        O  0.04991556  0.98545616  0.18140654    -0.55100
C178        C  0.00442189  0.58677391  0.11437961     0.78700
C179        C  0.41331464  0.00659293  0.16933784     0.81100
Cd180      Cd  0.99981255  0.50034562  0.14205553     1.37500
O181        O  0.50226486  0.95022330  0.10185297    -0.53900
O182        O  0.41533240  0.49653979  0.14487096    -0.52700
C183        C  0.08669032  0.49351777  0.16932136     0.81000
O184        O  0.45007476  0.51475947  0.18137299    -0.55100
O185        O  0.49092293  0.91595879  0.13949792    -0.53600
O186        O  0.00883409  0.58410207  0.13949577    -0.53500
O187        O  0.08468845  0.00319813  0.14483370    -0.52700
O188        O  0.50003249  0.54933997  0.43215865    -0.53900
C189        C  0.00349731  0.91349652  0.41937103     0.78700
O190        O  0.45071178  0.98919237  0.35238401    -0.55100
C191        C  0.49671537  0.58653105  0.41938253     0.78700
C192        C  0.08719680  0.00698068  0.36477873     0.81100
Cd193      Cd  0.49980986  0.49968683  0.39209621     1.37500
O194        O  0.00019449  0.95068515  0.43214955    -0.53900
O195        O  0.08433414  0.49922718  0.38975842    -0.52700
C196        C  0.41280376  0.49312687  0.36477433     0.81000
O197        O  0.04929285  0.51097287  0.35241522    -0.55100
O198        O  0.00526580  0.91610081  0.39412341    -0.53600
O199        O  0.49483412  0.58392577  0.39413801    -0.53500
O200        O  0.41565507  0.00057101  0.38976180    -0.52700
C201        C  0.99510768  0.79108501  0.07494055     0.07000
C202        C  0.99984806  0.75003158  0.08895978    -0.09100
C203        C  0.00464884  0.70898059  0.07494525     0.04500
C204        C  0.00612774  0.70912040  0.04689806    -0.07700
C205        C  0.99996485  0.75003593  0.03219468     0.07000
C206        C  0.99374246  0.79095018  0.04689098    -0.07100
H207        H  0.99981003  0.75003075  0.11069537     0.12600
H208        H  0.01235083  0.67691240  0.03701426     0.10100
H209        H  0.98757133  0.82316135  0.03699942     0.10000
C210        C  0.00330749  0.79123135  0.45897705     0.07000
C211        C  0.00430341  0.79117724  0.48705334    -0.09100
C212        C  0.00003113  0.75002786  0.50187243     0.04500
C213        C  0.99582022  0.70887699  0.48704897    -0.07700
C214        C  0.99693015  0.70881788  0.45897473     0.07000
C215        C  0.00014930  0.75002321  0.44497088    -0.07100
H216        H  0.00880600  0.82381062  0.49678994     0.12600
H217        H  0.99126619  0.67624586  0.49677992     0.10100
H218        H  0.50020351  0.75001994  0.42323022     0.10000
C219        C  0.49543141  0.66606181  0.44457080    -0.09400
C220        C  0.49548097  0.62986391  0.43294555    -0.10900
C221        C  0.00489380  0.83398023  0.44457268    -0.09400
C222        C  0.00481994  0.87016882  0.43293726    -0.10900
C223        C  0.49333142  0.87007864  0.10077100    -0.09400
C224        C  0.49295067  0.83382896  0.08924363    -0.10900
C225        C  0.00646716  0.62998044  0.10076807    -0.09400
C226        C  0.00680833  0.66623785  0.08924806    -0.10900
C227        C  0.33395306  0.00889273  0.19474159    -0.09400
C228        C  0.37006435  0.00890954  0.18299481    -0.10900
C229        C  0.12993972  0.49121681  0.18297937    -0.09400
C230        C  0.16604547  0.49123031  0.19473140    -0.10900
C231        C  0.13043509  0.00904388  0.35108588    -0.09400
C232        C  0.16656387  0.00873481  0.33935682    -0.10900
C233        C  0.36956797  0.49106239  0.35107926    -0.09400
C234        C  0.33343772  0.49134708  0.33935193    -0.10900
C235        C  0.20926747  0.50545031  0.82496605     0.07200
C236        C  0.20886981  0.00704121  0.79691001    -0.09100
C237        C  0.24968568  0.00008844  0.78220437     0.04500
C238        C  0.29052755  0.99318066  0.79688983    -0.07700
C239        C  0.29127666  0.49420335  0.82499310     0.07000
C240        C  0.25024692  0.49975511  0.83897496    -0.07100
H241        H  0.17676850  0.01367516  0.78692852     0.12600
H242        H  0.32258767  0.98640501  0.78690042     0.10100
H243        H  0.25021832  0.49971966  0.86071463     0.10000
C244        C  0.29128926  0.50589128  0.70916824     0.07000
C245        C  0.29115260  0.50707758  0.73724943    -0.09100
C246        C  0.24968389  0.99999106  0.75194731     0.04500
C247        C  0.20949037  0.49315487  0.73725771    -0.07700
C248        C  0.20927746  0.49455103  0.70918595     0.07000
C249        C  0.25026137  0.50030616  0.69518140    -0.07100
H250        H  0.32325790  0.51371453  0.74723412     0.12600
H251        H  0.17742619  0.48633237  0.74724013     0.10100
H252        H  0.25023828  0.50035879  0.67344191     0.10000
O253        O  0.00025312  0.54930909  0.60197329    -0.53900
C254        C  0.49659119  0.91351821  0.61475960     0.78700
O255        O  0.04927978  0.98858715  0.68171505    -0.55100
C256        C  0.00333071  0.58652472  0.61475219     0.78700
C257        C  0.41280787  0.00704014  0.66937271     0.81100
Cd258      Cd  0.00019614  0.49969205  0.64205691     1.37500
O259        O  0.49988384  0.95072171  0.60198838    -0.53900
O260        O  0.41568471  0.49866086  0.64448754    -0.52700
C261        C  0.08720740  0.49309257  0.66937358     0.81000
O262        O  0.45073404  0.51164305  0.68169221    -0.55100
O263        O  0.49480683  0.91610466  0.64000732    -0.53600
O264        O  0.00495358  0.58394484  0.64000391    -0.53500
O265        O  0.08433760  0.00107204  0.64445485    -0.52700
O266        O  0.50245172  0.54985299  0.93229028    -0.53900
C267        C  0.00454407  0.91325350  0.91974244     0.78700
O268        O  0.45011920  0.98611438  0.85265763    -0.55100
C269        C  0.49565045  0.58679090  0.91975055     0.78700
C270        C  0.08670883  0.00653000  0.86483687     0.81100
Cd271      Cd  0.50019180  0.50034674  0.89209823     1.37500
O272        O  0.99779355  0.95019335  0.93228841    -0.53900
O273        O  0.08470960  0.49714942  0.88938162    -0.52700
C274        C  0.41330470  0.49356068  0.86483548     0.81000
O275        O  0.04990168  0.51404302  0.85268767    -0.55100
O276        O  0.00900256  0.91594696  0.89462970    -0.53600
O277        O  0.49105628  0.58408773  0.89464667    -0.53500
O278        O  0.41528868  0.00263158  0.88940332    -0.52700
C279        C  0.99670243  0.79123196  0.57516474     0.07000
C280        C  0.99985029  0.75002493  0.58917172    -0.09100
C281        C  0.00305567  0.70881988  0.57516730     0.04500
C282        C  0.00416239  0.70888132  0.54709308    -0.07700
C283        C  0.99996243  0.75002810  0.53226989     0.07000
C284        C  0.99570310  0.79117392  0.54708860    -0.07100
H285        H  0.99981533  0.75002416  0.61090952     0.12600
H286        H  0.00870597  0.67625474  0.53736149     0.10100
H287        H  0.99120895  0.82380241  0.53735129     0.10000
C288        C  0.00487414  0.79108868  0.95920451     0.07000
C289        C  0.00623843  0.79095949  0.98725421    -0.09100
C290        C  0.00003232  0.75003575  0.00195095     0.04500
C291        C  0.99388679  0.70910995  0.98724729    -0.07700
C292        C  0.99536716  0.70897464  0.95920003     0.07000
C293        C  0.00015116  0.75003010  0.94518618    -0.07100
H294        H  0.01239694  0.82318123  0.99714484     0.12600
H295        H  0.98767617  0.67689202  0.99713017     0.10100
H296        H  0.50020761  0.75002973  0.92344940     0.10000
C297        C  0.49325867  0.66623683  0.94489218    -0.09400
C298        C  0.49361499  0.62999239  0.93336127    -0.10900
C299        C  0.00703150  0.83382435  0.94489648    -0.09400
C300        C  0.00665512  0.87006062  0.93335752    -0.10900
C301        C  0.49528188  0.87019035  0.60118887    -0.09400
C302        C  0.49518987  0.83398963  0.58956477    -0.10900
C303        C  0.00457875  0.62985894  0.60118587    -0.09400
C304        C  0.00462460  0.66606415  0.58956629    -0.10900
C305        C  0.33343594  0.00883441  0.69479166    -0.09400
C306        C  0.36956867  0.00913559  0.68306411    -0.10900
C307        C  0.13044269  0.49102103  0.68306835    -0.09400
C308        C  0.16657593  0.49132190  0.69479402    -0.10900
C309        C  0.12996708  0.00881300  0.85118408    -0.09400
C310        C  0.16606845  0.00879319  0.83942703    -0.10900
C311        C  0.37004991  0.49126496  0.85118150    -0.09400
C312        C  0.33394741  0.49125636  0.83942685    -0.10900
C313        C  0.70926402  0.00552730  0.32496558     0.07200
C314        C  0.70885674  0.50705296  0.29690937    -0.09100
C315        C  0.74967474  0.50010422  0.28220517     0.04500
C316        C  0.79051910  0.49322659  0.29689318    -0.07700
C317        C  0.79126741  0.99422486  0.32499309     0.07000
C318        C  0.75024236  0.99981863  0.33897444    -0.07100
H319        H  0.67675025  0.51366050  0.28692808     0.12600
H320        H  0.82258201  0.48644796  0.28690790     0.10100
H321        H  0.75021555  0.99979784  0.36071404     0.10000
C322        C  0.79127772  0.00586302  0.20916690     0.07000
C323        C  0.79113956  0.00707115  0.23724818    -0.09100
C324        C  0.74967324  0.49997687  0.25194786     0.04500
C325        C  0.70948241  0.99311131  0.23726034    -0.07700
C326        C  0.70927046  0.99447519  0.20918747     0.07000
C327        C  0.75025298  0.00023740  0.19518184    -0.07100
H328        H  0.82323950  0.01373506  0.24723328     0.12600
H329        H  0.67742147  0.98629039  0.24724696     0.10100
H330        H  0.75023023  0.00027219  0.17344233     0.10000
O331        O  0.50014173  0.04931430  0.10198972    -0.53900
C332        C  0.99667476  0.41350998  0.11475221     0.78700
O333        O  0.54927622  0.48840683  0.18169024    -0.55100
C334        C  0.50342602  0.08651827  0.11476142     0.78700
C335        C  0.91280240  0.50695333  0.16937340     0.81100
Cd336      Cd  0.50018346  0.99969139  0.14206735     1.37500
O337        O  0.99976369  0.45072414  0.10197307    -0.53900
O338        O  0.91566924  0.99898959  0.14445324    -0.52700
C339        C  0.58719943  0.99300705  0.16937509     0.81000
O340        O  0.95072732  0.01143318  0.18171781    -0.55100
O341        O  0.99504227  0.41609229  0.14000364    -0.53600
O342        O  0.50519732  0.08393254  0.14000953    -0.53500
O343        O  0.58432423  0.50137372  0.14448295    -0.52700
O344        O  0.00219422  0.04983865  0.43228932    -0.53900
C345        C  0.50434419  0.41324557  0.41975153     0.78700
O346        O  0.95009388  0.48594263  0.35269452    -0.55100
C347        C  0.99545356  0.08677904  0.41974215     0.78700
C348        C  0.58669598  0.50648134  0.36483210     0.81100
Cd349      Cd  0.00018807  0.00034371  0.39209260     1.37500
O350        O  0.49756788  0.45018763  0.43229212    -0.53900
O351        O  0.58471414  0.99740639  0.38940567    -0.52700
C352        C  0.91329536  0.99350322  0.36483691     0.81000
O353        O  0.54988570  0.01392019  0.35265915    -0.55100
O354        O  0.50891705  0.41594406  0.39464613    -0.53600
O355        O  0.99100627  0.08408560  0.39462870    -0.53500
O356        O  0.91529465  0.50294526  0.38937438    -0.52700
C357        C  0.49700109  0.29121748  0.07516818     0.07000
C358        C  0.50017932  0.25001127  0.08917303    -0.09100
C359        C  0.50328921  0.20880133  0.07516607     0.04500
C360        C  0.50427808  0.20885657  0.04708995    -0.07700
C361        C  0.50004793  0.25000480  0.03227032     0.07000
C362        C  0.49588582  0.29115527  0.04709442    -0.07100
H363        H  0.50022093  0.25001330  0.11091068     0.12600
H364        H  0.50873746  0.17622211  0.03735530     0.10100
H365        H  0.49136749  0.32378669  0.03736586     0.10000
C366        C  0.50460533  0.29105944  0.45919871     0.07000
C367        C  0.50609869  0.29092292  0.48724544    -0.09100
C368        C  0.49996967  0.24999539  0.50194977     0.04500
C369        C  0.49377032  0.20907034  0.48725274    -0.07700
C370        C  0.49512458  0.20894284  0.45920280     0.07000
C371        C  0.49982805  0.25000348  0.44518451    -0.07100
H372        H  0.51230585  0.32314300  0.49712678     0.12600
H373        H  0.48762665  0.17684564  0.49714264     0.10100
H374        H  0.99979438  0.25000702  0.42344977     0.10000
C375        C  0.99296521  0.16620959  0.44489535    -0.09400
C376        C  0.99334170  0.12997272  0.43335673    -0.10900
C377        C  0.50673104  0.33379905  0.44489251    -0.09400
C378        C  0.50637585  0.37004441  0.43336269    -0.10900
C379        C  0.99542505  0.37017489  0.10118639    -0.09400
C380        C  0.99537881  0.33396945  0.08956670    -0.10900
C381        C  0.50474005  0.12984575  0.10119055    -0.09400
C382        C  0.50483363  0.16604560  0.08956564    -0.10900
C383        C  0.83343319  0.50873054  0.19479351    -0.09400
C384        C  0.86956705  0.50902898  0.18306822    -0.10900
C385        C  0.63043784  0.99091719  0.18306710    -0.09400
C386        C  0.66657019  0.99122168  0.19479462    -0.10900
C387        C  0.62995038  0.50878309  0.35117778    -0.09400
C388        C  0.66605371  0.50879524  0.33942377    -0.10900
C389        C  0.87003771  0.99122010  0.35118405    -0.09400
C390        C  0.83393601  0.99124164  0.33942778    -0.10900
C391        C  0.70874071  0.00584094  0.82499000     0.07200
C392        C  0.70948441  0.50684762  0.79689194    -0.09100
C393        C  0.75033110  0.49996012  0.78220689     0.04500
C394        C  0.79114839  0.49302887  0.79691476    -0.07700
C395        C  0.79074507  0.99454786  0.82496330     0.07000
C396        C  0.74976629  0.00025811  0.83897192    -0.07100
H397        H  0.67742121  0.51361104  0.78690410     0.12600
H398        H  0.82325607  0.48641230  0.78693636     0.10100
H399        H  0.74979235  0.00028240  0.86071157     0.10000
C400        C  0.79073823  0.00555299  0.70918449     0.07000
C401        C  0.79052684  0.00692929  0.73725704    -0.09100
C402        C  0.75033395  0.50005511  0.75194898     0.04500
C403        C  0.70887100  0.99296415  0.73724817    -0.07700
C404        C  0.70873197  0.99416104  0.70916706     0.07000
C405        C  0.74975610  0.99978029  0.69518026    -0.07100
H406        H  0.82258711  0.01375904  0.74724215     0.12600
H407        H  0.67677130  0.98630444  0.74723436     0.10100
H408        H  0.74977798  0.99973783  0.67344058     0.10000
O409        O  0.49774046  0.04981346  0.60185276    -0.53900
C410        C  0.99559264  0.41326434  0.61437867     0.78700
O411        O  0.54993787  0.48525494  0.68136925    -0.55100
C412        C  0.50456554  0.08676100  0.61438862     0.78700
C413        C  0.91331990  0.50652800  0.66932475     0.81100
Cd414      Cd  0.49982534  0.00034530  0.64206641     1.37500
O415        O  0.00221344  0.45023711  0.60182989    -0.53900
O416        O  0.91531793  0.99685506  0.64482952    -0.52700
C417        C  0.58669181  0.99344623  0.66933817     0.81000
O418        O  0.95009110  0.01457437  0.68140582    -0.55100
O419        O  0.99119830  0.41593331  0.63949605    -0.53600
O420        O  0.50909337  0.08407647  0.63949736    -0.53500
O421        O  0.58467412  0.50353488  0.64487533    -0.52700
O422        O  0.99981059  0.04934779  0.93214891    -0.53900
C423        C  0.50329051  0.41349979  0.91938369     0.78700
O424        O  0.95070823  0.48909648  0.85241446    -0.55100
C425        C  0.99649861  0.08653582  0.91937081     0.78700
C426        C  0.58719635  0.50691157  0.86477421     0.81100
Cd427      Cd  0.99981426  0.99968857  0.89209206     1.37500
O428        O  0.49995445  0.45068944  0.93215955    -0.53900
O429        O  0.58434803  0.99948665  0.88976436    -0.52700
C430        C  0.91280766  0.99305932  0.86477625     0.81000
O431        O  0.54929180  0.01082027  0.85238216    -0.55100
O432        O  0.50518871  0.41610708  0.89413971    -0.53600
O433        O  0.99472534  0.08393110  0.89412327    -0.53500
O434        O  0.91566614  0.50077742  0.88976485    -0.52700
C435        C  0.49539023  0.29105519  0.57494474     0.07000
C436        C  0.50018427  0.25000413  0.58895947    -0.09100
C437        C  0.50490689  0.20894838  0.57494037     0.04500
C438        C  0.50626376  0.20908078  0.54689055    -0.07700
C439        C  0.50004750  0.24999572  0.53219397     0.07000
C440        C  0.49389962  0.29091346  0.54689797    -0.07100
H441        H  0.50022912  0.25000648  0.61069509     0.12600
H442        H  0.51242135  0.17686655  0.53699980     0.10100
H443        H  0.48767961  0.32312283  0.53701579     0.10000
C444        C  0.50302686  0.29121620  0.95897346     0.07000
C445        C  0.50414561  0.29115768  0.98704726    -0.09100
C446        C  0.49996942  0.25000421  0.00187193     0.04500
C447        C  0.49572331  0.20885208  0.98705220    -0.07700
C448        C  0.49670952  0.20879916  0.95897595     0.07000
C449        C  0.49983247  0.25000925  0.94496952    -0.07100
H450        H  0.50867671  0.32379372  0.99677491     0.12600
H451        H  0.49125287  0.17621342  0.99678639     0.10100
H452        H  0.99980866  0.25000961  0.92323407     0.10000
C453        C  0.99509598  0.16605163  0.94457358    -0.09400
C454        C  0.99517153  0.12986336  0.93293751    -0.10900
C455        C  0.50457695  0.33396885  0.94457196    -0.09400
C456        C  0.50452698  0.37016654  0.93294645    -0.10900
C457        C  0.99355043  0.37005759  0.60076671    -0.09400
C458        C  0.99321028  0.33379923  0.58924736    -0.10900
C459        C  0.50668152  0.12995733  0.60077102    -0.09400
C460        C  0.50706290  0.16620686  0.58924363    -0.10900
C461        C  0.83396411  0.50882466  0.69473419    -0.09400
C462        C  0.87007085  0.50883492  0.68298302    -0.10900
C463        C  0.62994134  0.99113059  0.68299537    -0.09400
C464        C  0.66605300  0.99114879  0.69474131    -0.10900
C465        C  0.63043211  0.50897828  0.85107880    -0.09400
C466        C  0.66656301  0.50869564  0.83935180    -0.10900
C467        C  0.86957021  0.99100091  0.85108274    -0.09400
C468        C  0.83344146  0.99131285  0.83935408    -0.10900
C469        C  0.70872561  0.50584966  0.32499084     0.07200
C470        C  0.70947880  0.00687274  0.29689279    -0.09100
C471        C  0.75031988  0.99996171  0.28220666     0.04500
C472        C  0.79113474  0.99300190  0.29691158    -0.07700
C473        C  0.79073442  0.49460031  0.32496497     0.07000
C474        C  0.74975428  0.50029761  0.33897331    -0.07100
H475        H  0.67741929  0.01365345  0.28690381     0.12600
H476        H  0.82323521  0.98636545  0.28692946     0.10100
H477        H  0.74978140  0.50033345  0.36071298     0.10000
C478        C  0.79073070  0.50550264  0.20918483     0.07000
C479        C  0.79051648  0.50689649  0.23725663    -0.09100
C480        C  0.75032217  0.00006160  0.25194963     0.04500
C481        C  0.70885405  0.49297483  0.23724715    -0.07700
C482        C  0.70871878  0.49416325  0.20916592     0.07000
C483        C  0.74974745  0.49974957  0.19517972    -0.07100
H484        H  0.82258014  0.51371738  0.24723955     0.12600
H485        H  0.67674815  0.48633706  0.24723144     0.10100
H486        H  0.74977178  0.49969838  0.17344017     0.10000
O487        O  0.49762609  0.54981445  0.10184069    -0.53900
C488        C  0.99542507  0.91327426  0.11438717     0.78700
O489        O  0.54991606  0.98546512  0.18140876    -0.55100
C490        C  0.50438849  0.58677295  0.11437847     0.78700
C491        C  0.91331342  0.00659952  0.16933058     0.81100
Cd492      Cd  0.49981686  0.50034825  0.14205853     1.37500
O493        O  0.00217382  0.95022959  0.10184543    -0.53900
O494        O  0.91532634  0.49657985  0.14485917    -0.52700
C495        C  0.58668385  0.49350315  0.16933211     0.81000
O496        O  0.95007159  0.51469622  0.18137789    -0.55100
O497        O  0.99097883  0.91595185  0.13950112    -0.53600
O498        O  0.50893602  0.58409101  0.13948596    -0.53500
O499        O  0.58468747  0.00320132  0.14483454    -0.52700
O500        O  0.99984152  0.54934248  0.43216190    -0.53900
C501        C  0.50344218  0.91349976  0.41937071     0.78700
O502        O  0.95071040  0.98920464  0.35238975    -0.55100
C503        C  0.99664755  0.58653880  0.41938040     0.78700
C504        C  0.58719667  0.00697746  0.36477706     0.81100
Cd505      Cd  0.99980504  0.49968957  0.39209945     1.37500
O506        O  0.50006451  0.95068530  0.43214555    -0.53900
O507        O  0.58433358  0.49918533  0.38974200    -0.52700
C508        C  0.91279895  0.49314501  0.36477736     0.81000
O509        O  0.54928506  0.51103030  0.35241164    -0.55100
O510        O  0.50530591  0.91610627  0.39412566    -0.53600
O511        O  0.99491561  0.58393771  0.39413189    -0.53500
O512        O  0.91565610  0.00054469  0.38977220    -0.52700
C513        C  0.49510645  0.79108709  0.07494059     0.07000
C514        C  0.49983336  0.75003219  0.08895971    -0.09100
C515        C  0.50462602  0.70898075  0.07494496     0.04500
C516        C  0.50611197  0.70912123  0.04689806    -0.07700
C517        C  0.49996036  0.75003826  0.03219434     0.07000
C518        C  0.49374429  0.79095336  0.04689095    -0.07100
H519        H  0.49979217  0.75003070  0.11069532     0.12600
H520        H  0.51233078  0.67691174  0.03701533     0.10100
H521        H  0.48758262  0.82316677  0.03700013     0.10000
C522        C  0.50327730  0.79123248  0.45897441     0.07000
C523        C  0.50426458  0.79118039  0.48705057    -0.09100
C524        C  0.50003172  0.75002742  0.50187089     0.04500
C525        C  0.49586551  0.70887271  0.48704606    -0.07700
C526        C  0.49697818  0.70881456  0.45897222     0.07000
C527        C  0.50016142  0.75002181  0.44496805    -0.07100
H528        H  0.50872633  0.82382094  0.49678354     0.12600
H529        H  0.49134682  0.67623482  0.49677304     0.10100
H530        H  0.00018734  0.75002173  0.42323292     0.10000
C531        C  0.99535264  0.66606723  0.44457177    -0.09400
C532        C  0.99539526  0.62987209  0.43294312    -0.10900
C533        C  0.50483452  0.83398273  0.44457088    -0.09400
C534        C  0.50475201  0.87017281  0.43293747    -0.10900
C535        C  0.99330927  0.87007692  0.10077027    -0.09400
C536        C  0.99293779  0.83382659  0.08924339    -0.10900
C537        C  0.50642459  0.62997857  0.10076580    -0.09400
C538        C  0.50677122  0.66623676  0.08924688    -0.10900
C539        C  0.83395431  0.00888087  0.19473807    -0.09400
C540        C  0.87006278  0.00890814  0.18298805    -0.10900
C541        C  0.62993095  0.49118167  0.18299072    -0.09400
C542        C  0.66604011  0.49117900  0.19473874    -0.10900
C543        C  0.63043671  0.00905003  0.35108572    -0.09400
C544        C  0.66656607  0.00875322  0.33935669    -0.10900
C545        C  0.86956324  0.49109692  0.35108206    -0.09400
C546        C  0.83343348  0.49139548  0.33935473    -0.10900
C547        C  0.70926584  0.50549938  0.82496419     0.07200
C548        C  0.70887407  0.00705595  0.79690862    -0.09100
C549        C  0.74968995  0.00009681  0.78220439     0.04500
C550        C  0.79053135  0.99319521  0.79689086    -0.07700
C551        C  0.79127572  0.49425580  0.82499631     0.07000
C552        C  0.75024503  0.49982022  0.83897546    -0.07100
H553        H  0.67677208  0.01368337  0.78692611     0.12600
H554        H  0.82259116  0.98641226  0.78690253     0.10100
H555        H  0.75021453  0.49979981  0.86071511     0.10000
C556        C  0.79128800  0.50583393  0.70916438     0.07000
C557        C  0.79115352  0.50704356  0.73724564    -0.09100
C558        C  0.74968799  0.99998247  0.75194777     0.04500
C559        C  0.70949057  0.49312348  0.73725966    -0.07700
C560        C  0.70927583  0.49449501  0.70918740     0.07000
C561        C  0.75025926  0.50023480  0.69518039    -0.07100
H562        H  0.82325892  0.51369108  0.74722775     0.12600
H563        H  0.67742575  0.48631400  0.74724442     0.10100
H564        H  0.75023407  0.50027250  0.67344085     0.10000
O565        O  0.50007205  0.54930498  0.60197535    -0.53900
C566        C  0.99653595  0.91351460  0.61476087     0.78700
O567        O  0.54927746  0.98857075  0.68171989    -0.55100
C568        C  0.50326136  0.58651673  0.61474902     0.78700
C569        C  0.91280717  0.00704109  0.66937127     0.81100
Cd570      Cd  0.50019165  0.49968951  0.64205998     1.37500
O571        O  0.99975018  0.95072102  0.60198573    -0.53900
O572        O  0.91568346  0.49871057  0.64446981    -0.52700
C573        C  0.58720268  0.49307522  0.66937684     0.81000
O574        O  0.95072619  0.51158151  0.68168963    -0.55100
O575        O  0.99485072  0.91609913  0.64001113    -0.53600
O576        O  0.50502381  0.58393421  0.63999726    -0.53500
O577        O  0.58433821  0.00110042  0.64446567    -0.52700
O578        O  0.00229173  0.54984069  0.93230060    -0.53900
C579        C  0.50452432  0.91325472  0.91974019     0.78700
O580        O  0.95011943  0.98611217  0.85265980    -0.55100
C581        C  0.99561748  0.58679117  0.91975039     0.78700
C582        C  0.58670754  0.00652711  0.86482906     0.81100
Cd583      Cd  0.00019619  0.50034436  0.89210126     1.37500
O584        O  0.49769739  0.95018683  0.93227984    -0.53900
O585        O  0.58470396  0.49711351  0.88937172    -0.52700
C586        C  0.91329894  0.49357335  0.86484569     0.81000
O587        O  0.54989853  0.51409740  0.85269125    -0.55100
O588        O  0.50906558  0.91595496  0.89463276    -0.53600
O589        O  0.99116426  0.58409968  0.89463734    -0.53500
O590        O  0.91528694  0.00262592  0.88940543    -0.52700
C591        C  0.49673043  0.79123312  0.57516566     0.07000
C592        C  0.49983494  0.75002334  0.58917275    -0.09100
C593        C  0.50300264  0.70881610  0.57516805     0.04500
C594        C  0.50411115  0.70887665  0.54709419    -0.07700
C595        C  0.49995719  0.75002751  0.53226969     0.07000
C596        C  0.49573918  0.79117710  0.54708966    -0.07100
H597        H  0.49979675  0.75002223  0.61091054     0.12600
H598        H  0.50861808  0.67624299  0.53736649     0.10100
H599        H  0.49128707  0.82381302  0.53735597     0.10000
C600        C  0.50487430  0.79109127  0.95920369     0.07000
C601        C  0.50623466  0.79096290  0.98725347    -0.09100
C602        C  0.50003360  0.75003820  0.00195030     0.04500
C603        C  0.49389854  0.70911136  0.98724608    -0.07700
C604        C  0.49538688  0.70897559  0.95919913     0.07000
C605        C  0.50016434  0.75003156  0.94518525    -0.07100
H606        H  0.51238414  0.82318639  0.99714346     0.12600
H607        H  0.48769127  0.67689172  0.99712776     0.10100
H608        H  0.00019021  0.75002872  0.92345034     0.10000
C609        C  0.99322400  0.66623695  0.94489236    -0.09400
C610        C  0.99357381  0.62999331  0.93336031    -0.10900
C611        C  0.50701905  0.83382734  0.94489568    -0.09400
C612        C  0.50663417  0.87006299  0.93335631    -0.10900
C613        C  0.99521370  0.87018596  0.60119086    -0.09400
C614        C  0.99513102  0.83398682  0.58956470    -0.10900
C615        C  0.50448947  0.62985029  0.60118197    -0.09400
C616        C  0.50454103  0.66605814  0.58956554    -0.10900
C617        C  0.83343700  0.00881371  0.69479101    -0.09400
C618        C  0.86956941  0.00912691  0.68306376    -0.10900
C619        C  0.63043786  0.49098655  0.68307151    -0.09400
C620        C  0.66657164  0.49127275  0.69479707    -0.10900
C621        C  0.62996540  0.00881969  0.85117689    -0.09400
C622        C  0.66606976  0.00881115  0.83942327    -0.10900
C623        C  0.87004219  0.49129619  0.85119222    -0.09400
C624        C  0.83394300  0.49130252  0.83943372    -0.10900
loop_ 
_geom_bond_atom_site_label_1 
_geom_bond_atom_site_label_2 
_geom_bond_distance 
_geom_bond_site_symmetry_2 
_ccdc_geom_bond_type 
C1            C6   1.397   1_545  A
C1          C158   1.402       .  A
C1          C232   1.443       .  S
C2            C3   1.416       .  A
C2          C157   1.402       .  A
C2            H7   1.080       .  S
C3            C4   1.416       .  A
C3           C12   1.510       .  S
C4          C161   1.402       .  A
C4            H8   1.080       .  S
C5            C6   1.397       .  A
C5          C160   1.402       .  A
C5           C78   1.443       .  S
C6            H9   1.085       .  S
C10          C11   1.402       .  A
C10          C15   1.397       .  A
C10         C227   1.443       .  S
C11         C168   1.416       .  A
C11          H16   1.080       .  S
C12         C167   1.416       .  A
C12         C169   1.416       .  A
C13          C14   1.402       .  A
C13         C168   1.416   1_565  A
C13          H17   1.080       .  S
C14          C15   1.397   1_565  A
C14          C74   1.443       .  S
C15          H18   1.085       .  S
O19          C22   1.265       .  A
O19         Cd24   2.471   1_545  S
C20          C67   1.437       .  S
C20          O29   1.264       .  A
C20          O25   1.265       .  A
O21         C183   1.264       .  A
O21        Cd180   2.475   1_455  S
C22          C69   1.437       .  S
C22          O30   1.264       .  A
C23          C72   1.438       .  S
C23         O184   1.264       .  A
C23         O182   1.263       .  A
Cd24         O30   2.470   1_565  S
Cd24        O177   2.479       .  S
Cd24        O187   2.477   1_565  S
Cd24        O497   2.467   1_455  S
Cd24        O493   2.475       .  S
Cd24        O340   2.475   1_465  S
Cd24        O338   2.474   1_455  S
O25        Cd492   2.472       .  S
O26         C179   1.263   1_565  A
O26        Cd336   2.474       .  S
C27          C73   1.438       .  S
C27         O177   1.264       .  A
C27         O187   1.263   1_565  A
O28         C179   1.264       .  A
O28        Cd336   2.475   1_545  S
O29        Cd492   2.470       .  S
O31         C183   1.263       .  A
O31        Cd180   2.474   1_455  S
O32          C35   1.264       .  A
O32         Cd37   2.475       .  S
C33          C66   1.436       .  S
C33          O42   1.263       .  A
C33          O38   1.264   1_455  A
O34         C196   1.264       .  A
O34        Cd193   2.478       .  S
C35          C64   1.436       .  S
C35          O43   1.263       .  A
C36          C75   1.438       .  S
C36         O197   1.264       .  A
C36         O195   1.263       .  A
Cd37         O43   2.467       .  S
Cd37        O190   2.475   1_545  S
Cd37        O200   2.474       .  S
Cd37        O510   2.470   1_545  S
Cd37        O506   2.471   1_545  S
Cd37        O353   2.478       .  S
Cd37        O351   2.477   1_545  S
O38        Cd505   2.475       .  S
O39         C192   1.263   1_565  A
O39        Cd349   2.477   1_565  S
C40          C77   1.438       .  S
C40         O190   1.264       .  A
C40         O200   1.263   1_565  A
O41         C192   1.264       .  A
O41        Cd349   2.478       .  S
O42        Cd505   2.467   1_455  S
O44         C196   1.263       .  A
O44        Cd193   2.477       .  S
C45          C46   1.396   1_655  A
C45          C50   1.402       .  A
C45         C380   1.443       .  S
C46          C47   1.396       .  A
C46          H51   1.085       .  S
C47          C48   1.402       .  A
C47          C70   1.443       .  S
C48          C49   1.418       .  A
C48          H52   1.079       .  S
C49          C50   1.418   1_455  A
C49         C134   1.517   1_455  S
C50          H53   1.079       .  S
C54          C55   1.401       .  A
C54          C59   1.396   1_455  A
C54          C65   1.441       .  S
C55          C56   1.415   1_455  A
C55          H60   1.079       .  S
C56          C57   1.415       .  A
C56         C127   1.510   1_655  S
C57          C58   1.401       .  A
C57          H61   1.079       .  S
C58          C59   1.396       .  A
C58         C375   1.441       .  S
C59         H374   1.085       .  S
H62         C371   1.085       .  S
C63         C370   1.441       .  S
C63          C64   1.206       .  T
C65          C66   1.206       .  T
C67          C68   1.207       .  T
C68         C357   1.443       .  S
C69          C70   1.207       .  T
C71         C166   1.443       .  S
C71          C72   1.208       .  T
C73          C74   1.208       .  T
C75          C76   1.208       .  T
C76         C157   1.443       .  S
C77          C78   1.208       .  T
C79         C236   1.402       .  A
C79          C84   1.397       .  A
C79         C310   1.443       .  S
C80         C235   1.402       .  A
C80          C81   1.416       .  A
C80          H85   1.080       .  S
C81          C82   1.416       .  A
C81          C90   1.510       .  S
C82         C239   1.402       .  A
C82          H86   1.080       .  S
C83         C238   1.402       .  A
C83          C84   1.397   1_565  A
C83         C156   1.443       .  S
C84          H87   1.085       .  S
C88          C89   1.402       .  A
C88          C93   1.397   1_545  A
C88         C305   1.443       .  S
C89         C246   1.416   1_545  A
C89          H94   1.080       .  S
C90         C245   1.416       .  A
C90         C247   1.416       .  A
C91         C246   1.416       .  A
C91          C92   1.402       .  A
C91          H95   1.080       .  S
C92          C93   1.397       .  A
C92         C152   1.443       .  S
C93          H96   1.085       .  S
O97         C100   1.264   1_655  A
O97        Cd102   2.475       .  S
C98         C145   1.436       .  S
C98         O107   1.263       .  A
C98         O103   1.264       .  A
O99         C261   1.264       .  A
O99        Cd258   2.479       .  S
C100        C147   1.436       .  S
C100        O108   1.263       .  A
C101        C150   1.438       .  S
C101        O262   1.264       .  A
C101        O260   1.263       .  A
Cd102       O255   2.475   1_645  S
Cd102       O265   2.474   1_655  S
Cd102       O108   2.467   1_655  S
Cd102       O575   2.470   1_545  S
Cd102       O571   2.471   1_545  S
Cd102       O418   2.479       .  S
Cd102       O416   2.477   1_545  S
O103       Cd570   2.475       .  S
O104        C257   1.263   1_565  A
O104       Cd414   2.477   1_565  S
C105        C151   1.438       .  S
C105        O255   1.264       .  A
C105        O265   1.263   1_565  A
O106        C257   1.264       .  A
O106       Cd414   2.479       .  S
O107       Cd570   2.466       .  S
O109        C261   1.263       .  A
O109       Cd258   2.476       .  S
O110        C113   1.264       .  A
O110       Cd115   2.471   1_545  S
C111        C144   1.437       .  S
C111        O120   1.264       .  A
C111        O116   1.265       .  A
O112        C274   1.264       .  A
O112       Cd271   2.475       .  S
C113        C142   1.437       .  S
C113        O121   1.264       .  A
C114        C153   1.438       .  S
C114        O275   1.264       .  A
C114        O273   1.263       .  A
Cd115       O268   2.478       .  S
Cd115       O278   2.477   1_565  S
Cd115       O121   2.470   1_565  S
Cd115       O588   2.467       .  S
Cd115       O584   2.475       .  S
Cd115       O431   2.475   1_565  S
Cd115       O429   2.474       .  S
O116       Cd583   2.471       .  S
O117        C270   1.263   1_565  A
O117       Cd427   2.474   1_455  S
C118        C155   1.438       .  S
C118        O268   1.264       .  A
C118        O278   1.263   1_565  A
O119        C270   1.264       .  A
O119       Cd427   2.475   1_445  S
O120       Cd583   2.470       .  S
O122        C274   1.263       .  A
O122       Cd271   2.474       .  S
C123        C124   1.397   1_655  A
C123        C128   1.401       .  A
C123        C458   1.441       .  S
C124        C125   1.397       .  A
C124        H129   1.085       .  S
C125        C126   1.401       .  A
C125        C148   1.441       .  S
C126        C127   1.415       .  A
C126        H130   1.079       .  S
C127        C128   1.415   1_455  A
C128        H131   1.079       .  S
C132        C133   1.402       .  A
C132        C137   1.396   1_455  A
C132        C143   1.443       .  S
C133        C134   1.418   1_456  A
C133        H138   1.079       .  S
C134        C135   1.418   1_554  A
C135        C136   1.402       .  A
C135        H139   1.079       .  S
C136        C137   1.396       .  A
C136        C453   1.443       .  S
C137        H452   1.085       .  S
H140        C449   1.085       .  S
C141        C448   1.443       .  S
C141        C142   1.207       .  T
C143        C144   1.207       .  T
C145        C146   1.206       .  T
C146        C435   1.441       .  S
C147        C148   1.206       .  T
C149        C244   1.443       .  S
C149        C150   1.208       .  T
C151        C152   1.208       .  T
C153        C154   1.208       .  T
C154        C235   1.443       .  S
C155        C156   1.208       .  T
C157        C162   1.397       .  A
C158        C159   1.416   1_545  A
C158        H163   1.080       .  S
C159        C160   1.416       .  A
C159        C168   1.510   1_565  S
C160        H164   1.080       .  S
C161        C162   1.397       .  A
C161        C234   1.443       .  S
C162        H165   1.085       .  S
C166        C167   1.402       .  A
C166        C171   1.397       .  A
C167        H172   1.080       .  S
C169        C170   1.402       .  A
C169        H173   1.080       .  S
C170        C171   1.397       .  A
C170        C230   1.443       .  S
C171        H174   1.085       .  S
O175        C178   1.264   1_655  A
O175       Cd180   2.475       .  S
C176        C223   1.436       .  S
C176        O185   1.263       .  A
C176        O181   1.264       .  A
C178        C225   1.436       .  S
C178        O186   1.263       .  A
C179        C228   1.438       .  S
Cd180       O186   2.467   1_655  S
Cd180       O341   2.470       .  S
Cd180       O337   2.472       .  S
Cd180       O496   2.479       .  S
Cd180       O494   2.476       .  S
O181       Cd336   2.475       .  S
O182       Cd492   2.477       .  S
C183        C229   1.438       .  S
O184       Cd492   2.479       .  S
O185       Cd336   2.467       .  S
O188        C191   1.265       .  A
O188       Cd193   2.471       .  S
C189        C222   1.437       .  S
C189        O198   1.264       .  A
C189        O194   1.264       .  A
C191        C220   1.437       .  S
C191        O199   1.264       .  A
C192        C231   1.438       .  S
Cd193       O199   2.470       .  S
Cd193       O354   2.467       .  S
Cd193       O350   2.475       .  S
Cd193       O509   2.475       .  S
Cd193       O507   2.474       .  S
O194       Cd349   2.471   1_565  S
O195       Cd505   2.474   1_455  S
C196        C233   1.438       .  S
O197       Cd505   2.475   1_455  S
O198       Cd349   2.470   1_565  S
C201        C202   1.397       .  A
C201        C206   1.401       .  A
C201        C536   1.441       .  S
C202        C203   1.397   1_655  A
C202        H207   1.085       .  S
C203        C204   1.401       .  A
C203        C226   1.441       .  S
C204        C205   1.415   1_455  A
C204        H208   1.079       .  S
C205        C206   1.415       .  A
C205        C290   1.510   1_655  S
C206        H209   1.079       .  S
C210        C211   1.402       .  A
C210        C215   1.396       .  A
C210        C221   1.443       .  S
C211        C212   1.418       .  A
C211        H216   1.079       .  S
C212        C213   1.418   1_455  A
C212        C283   1.517   1_455  S
C213        C214   1.402       .  A
C213        H217   1.079       .  S
C214        C215   1.396   1_655  A
C214        C531   1.443       .  S
C215        H530   1.085       .  S
H218        C527   1.085       .  S
C219        C526   1.443       .  S
C219        C220   1.207       .  T
C221        C222   1.207       .  T
C223        C224   1.206       .  T
C224        C513   1.441       .  S
C225        C226   1.206       .  T
C227        C228   1.208       .  T
C229        C230   1.208       .  T
C231        C232   1.208       .  T
C233        C234   1.208       .  T
C235        C240   1.397       .  A
C236        C237   1.416       .  A
C236        H241   1.080       .  S
C237        C238   1.416   1_545  A
C237        C246   1.510   1_545  S
C238        H242   1.080       .  S
C239        C240   1.397       .  A
C239        C312   1.443       .  S
C240        H243   1.085       .  S
C244        C245   1.402       .  A
C244        C249   1.397       .  A
C245        H250   1.080       .  S
C247        C248   1.402       .  A
C247        H251   1.080       .  S
C248        C249   1.397       .  A
C248        C308   1.443       .  S
C249        H252   1.085       .  S
O253        C256   1.265       .  A
O253       Cd258   2.472       .  S
C254        C301   1.437       .  S
C254        O263   1.264       .  A
C254        O259   1.265       .  A
C256        C303   1.437       .  S
C256        O264   1.264       .  A
C257        C306   1.438       .  S
Cd258       O264   2.470       .  S
Cd258       O419   2.467   1_455  S
Cd258       O415   2.475       .  S
Cd258       O574   2.475   1_455  S
Cd258       O572   2.474   1_455  S
O259       Cd414   2.471   1_565  S
O260       Cd570   2.474       .  S
C261        C307   1.438       .  S
O262       Cd570   2.475       .  S
O263       Cd414   2.470   1_565  S
O266        C269   1.264       .  A
O266       Cd271   2.475       .  S
C267        C300   1.436       .  S
C267        O276   1.263       .  A
C267        O272   1.264   1_455  A
C269        C298   1.436       .  S
C269        O277   1.263       .  A
C270        C309   1.438       .  S
Cd271       O277   2.467       .  S
Cd271       O432   2.470       .  S
Cd271       O428   2.471       .  S
Cd271       O587   2.478       .  S
Cd271       O585   2.477       .  S
O272       Cd427   2.475       .  S
O273       Cd583   2.476       .  S
C274        C311   1.438       .  S
O275       Cd583   2.478       .  S
O276       Cd427   2.467   1_455  S
C279        C280   1.396       .  A
C279        C284   1.402       .  A
C279        C614   1.443       .  S
C280        C281   1.396   1_655  A
C280        H285   1.085       .  S
C281        C282   1.402       .  A
C281        C304   1.443       .  S
C282        C283   1.418   1_455  A
C282        H286   1.079       .  S
C283        C284   1.418       .  A
C284        H287   1.079       .  S
C288        C289   1.401       .  A
C288        C293   1.396       .  A
C288        C299   1.441       .  S
C289        C290   1.415   1_556  A
C289        H294   1.079       .  S
C290        C291   1.415   1_454  A
C291        C292   1.401       .  A
C291        H295   1.079       .  S
C292        C293   1.396   1_655  A
C292        C609   1.441       .  S
C293        H608   1.085       .  S
H296        C605   1.085       .  S
C297        C604   1.441       .  S
C297        C298   1.206       .  T
C299        C300   1.206       .  T
C301        C302   1.207       .  T
C302        C591   1.443       .  S
C303        C304   1.207       .  T
C305        C306   1.208       .  T
C307        C308   1.208       .  T
C309        C310   1.208       .  T
C311        C312   1.208       .  T
C313        C470   1.402       .  A
C313        C318   1.397   1_545  A
C313        C544   1.443       .  S
C314        C469   1.402       .  A
C314        C315   1.416       .  A
C314        H319   1.080       .  S
C315        C316   1.416       .  A
C315        C324   1.510       .  S
C316        C473   1.402       .  A
C316        H320   1.080       .  S
C317        C472   1.402       .  A
C317        C318   1.397       .  A
C317        C390   1.443       .  S
C318        H321   1.085       .  S
C322        C323   1.402       .  A
C322        C327   1.397       .  A
C322        C539   1.443       .  S
C323        C480   1.416       .  A
C323        H328   1.080       .  S
C324        C479   1.416       .  A
C324        C481   1.416       .  A
C325        C480   1.416   1_565  A
C325        C326   1.402       .  A
C325        H329   1.080       .  S
C326        C327   1.397   1_565  A
C326        C386   1.443       .  S
C327        H330   1.085       .  S
O331        C334   1.265       .  A
O331       Cd336   2.471   1_545  S
C332        C379   1.437       .  S
C332        O341   1.264       .  A
C332        O337   1.265       .  A
O333        C495   1.264       .  A
O333       Cd492   2.475       .  S
C334        C381   1.437       .  S
C334        O342   1.264       .  A
C335        C384   1.438       .  S
C335        O496   1.264       .  A
C335        O494   1.263       .  A
Cd336       O489   2.479       .  S
Cd336       O499   2.477   1_565  S
Cd336       O342   2.470   1_565  S
O338        C491   1.263   1_565  A
C339        C385   1.438       .  S
C339        O489   1.264       .  A
C339        O499   1.263   1_565  A
O340        C491   1.264       .  A
O343        C495   1.263       .  A
O343       Cd492   2.474       .  S
O344        C347   1.264   1_455  A
O344       Cd349   2.475       .  S
C345        C378   1.436       .  S
C345        O354   1.263       .  A
C345        O350   1.264       .  A
O346        C508   1.264       .  A
O346       Cd505   2.478       .  S
C347        C376   1.436       .  S
C347        O355   1.263       .  A
C348        C387   1.438       .  S
C348        O509   1.264       .  A
C348        O507   1.263       .  A
Cd349       O502   2.475   1_445  S
Cd349       O512   2.474   1_455  S
Cd349       O355   2.467   1_455  S
O351        C504   1.263   1_565  A
C352        C389   1.438       .  S
C352        O502   1.264       .  A
C352        O512   1.263   1_565  A
O353        C504   1.264       .  A
O356        C508   1.263       .  A
O356       Cd505   2.476       .  S
C357        C358   1.396       .  A
C357        C362   1.402       .  A
C358        C359   1.396       .  A
C358        H363   1.085       .  S
C359        C360   1.402       .  A
C359        C382   1.443       .  S
C360        C361   1.418       .  A
C360        H364   1.079       .  S
C361        C362   1.418       .  A
C361        C446   1.517       .  S
C362        H365   1.079       .  S
C366        C367   1.401       .  A
C366        C371   1.396       .  A
C366        C377   1.441       .  S
C367        C368   1.415       .  A
C367        H372   1.079       .  S
C368        C369   1.415       .  A
C368        C439   1.510       .  S
C369        C370   1.401       .  A
C369        H373   1.079       .  S
C370        C371   1.396       .  A
C375        C376   1.206       .  T
C377        C378   1.206       .  T
C379        C380   1.207       .  T
C381        C382   1.207       .  T
C383        C478   1.443       .  S
C383        C384   1.208       .  T
C385        C386   1.208       .  T
C387        C388   1.208       .  T
C388        C469   1.443       .  S
C389        C390   1.208       .  T
C391        C548   1.402       .  A
C391        C396   1.397       .  A
C391        C622   1.443       .  S
C392        C547   1.402       .  A
C392        C393   1.416       .  A
C392        H397   1.080       .  S
C393        C394   1.416       .  A
C393        C402   1.510       .  S
C394        C551   1.402       .  A
C394        H398   1.080       .  S
C395        C550   1.402       .  A
C395        C396   1.397   1_565  A
C395        C468   1.443       .  S
C396        H399   1.085       .  S
C400        C401   1.402       .  A
C400        C405   1.397   1_545  A
C400        C617   1.443       .  S
C401        C558   1.416   1_545  A
C401        H406   1.080       .  S
C402        C557   1.416       .  A
C402        C559   1.416       .  A
C403        C558   1.416       .  A
C403        C404   1.402       .  A
C403        H407   1.080       .  S
C404        C405   1.397       .  A
C404        C464   1.443       .  S
C405        H408   1.085       .  S
O409        C412   1.264       .  A
O409       Cd414   2.475       .  S
C410        C457   1.436       .  S
C410        O419   1.263       .  A
C410        O415   1.264   1_655  A
O411        C573   1.264       .  A
O411       Cd570   2.479       .  S
C412        C459   1.436       .  S
C412        O420   1.263       .  A
C413        C462   1.438       .  S
C413        O574   1.264       .  A
C413        O572   1.263       .  A
Cd414       O567   2.475   1_545  S
Cd414       O577   2.474       .  S
Cd414       O420   2.467       .  S
O416        C569   1.263   1_565  A
C417        C463   1.438       .  S
C417        O567   1.264       .  A
C417        O577   1.263   1_565  A
O418        C569   1.264       .  A
O421        C573   1.263       .  A
O421       Cd570   2.477       .  S
O422        C425   1.264       .  A
O422       Cd427   2.471   1_545  S
C423        C456   1.437       .  S
C423        O432   1.264       .  A
C423        O428   1.265       .  A
O424        C586   1.264       .  A
O424       Cd583   2.475   1_655  S
C425        C454   1.437       .  S
C425        O433   1.264       .  A
C426        C465   1.438       .  S
C426        O587   1.264       .  A
C426        O585   1.263       .  A
Cd427       O580   2.478       .  S
Cd427       O590   2.477   1_565  S
Cd427       O433   2.470   1_565  S
O429        C582   1.263   1_565  A
C430        C467   1.438       .  S
C430        O580   1.264       .  A
C430        O590   1.263   1_565  A
O431        C582   1.264       .  A
O434        C586   1.263       .  A
O434       Cd583   2.474   1_655  S
C435        C436   1.397       .  A
C435        C440   1.401       .  A
C436        C437   1.397       .  A
C436        H441   1.085       .  S
C437        C438   1.401       .  A
C437        C460   1.441       .  S
C438        C439   1.415       .  A
C438        H442   1.079       .  S
C439        C440   1.415       .  A
C440        H443   1.079       .  S
C444        C445   1.402       .  A
C444        C449   1.396       .  A
C444        C455   1.443       .  S
C445        C446   1.418   1_556  A
C445        H450   1.079       .  S
C446        C447   1.418   1_554  A
C447        C448   1.402       .  A
C447        H451   1.079       .  S
C448        C449   1.396       .  A
C453        C454   1.207       .  T
C455        C456   1.207       .  T
C457        C458   1.206       .  T
C459        C460   1.206       .  T
C461        C556   1.443       .  S
C461        C462   1.208       .  T
C463        C464   1.208       .  T
C465        C466   1.208       .  T
C466        C547   1.443       .  S
C467        C468   1.208       .  T
C469        C474   1.397       .  A
C470        C471   1.416   1_545  A
C470        H475   1.080       .  S
C471        C472   1.416       .  A
C471        C480   1.510   1_565  S
C472        H476   1.080       .  S
C473        C474   1.397       .  A
C473        C546   1.443       .  S
C474        H477   1.085       .  S
C478        C479   1.402       .  A
C478        C483   1.397       .  A
C479        H484   1.080       .  S
C481        C482   1.402       .  A
C481        H485   1.080       .  S
C482        C483   1.397       .  A
C482        C542   1.443       .  S
C483        H486   1.085       .  S
O487        C490   1.264       .  A
O487       Cd492   2.475       .  S
C488        C535   1.436       .  S
C488        O497   1.263       .  A
C488        O493   1.264   1_655  A
C490        C537   1.436       .  S
C490        O498   1.263       .  A
C491        C540   1.438       .  S
Cd492       O498   2.466       .  S
C495        C541   1.438       .  S
O500        C503   1.265       .  A
O500       Cd505   2.471       .  S
C501        C534   1.437       .  S
C501        O510   1.264       .  A
C501        O506   1.264       .  A
C503        C532   1.437       .  S
C503        O511   1.264       .  A
C504        C543   1.438       .  S
Cd505       O511   2.470       .  S
C508        C545   1.438       .  S
C513        C514   1.397       .  A
C513        C518   1.401       .  A
C514        C515   1.397       .  A
C514        H519   1.085       .  S
C515        C516   1.401       .  A
C515        C538   1.441       .  S
C516        C517   1.415       .  A
C516        H520   1.079       .  S
C517        C518   1.415       .  A
C517        C602   1.510       .  S
C518        H521   1.079       .  S
C522        C523   1.402       .  A
C522        C527   1.396       .  A
C522        C533   1.443       .  S
C523        C524   1.418       .  A
C523        H528   1.079       .  S
C524        C525   1.418       .  A
C524        C595   1.517       .  S
C525        C526   1.402       .  A
C525        H529   1.079       .  S
C526        C527   1.396       .  A
C531        C532   1.207       .  T
C533        C534   1.207       .  T
C535        C536   1.206       .  T
C537        C538   1.206       .  T
C539        C540   1.208       .  T
C541        C542   1.208       .  T
C543        C544   1.208       .  T
C545        C546   1.208       .  T
C547        C552   1.397       .  A
C548        C549   1.416       .  A
C548        H553   1.080       .  S
C549        C550   1.416   1_545  A
C549        C558   1.510   1_545  S
C550        H554   1.080       .  S
C551        C552   1.397       .  A
C551        C624   1.443       .  S
C552        H555   1.085       .  S
C556        C557   1.402       .  A
C556        C561   1.397       .  A
C557        H562   1.080       .  S
C559        C560   1.402       .  A
C559        H563   1.080       .  S
C560        C561   1.397       .  A
C560        C620   1.443       .  S
C561        H564   1.085       .  S
O565        C568   1.265       .  A
O565       Cd570   2.472       .  S
C566        C613   1.437       .  S
C566        O575   1.264       .  A
C566        O571   1.265       .  A
C568        C615   1.437       .  S
C568        O576   1.264       .  A
C569        C618   1.438       .  S
Cd570       O576   2.470       .  S
C573        C619   1.438       .  S
O578        C581   1.264   1_455  A
O578       Cd583   2.475       .  S
C579        C612   1.436       .  S
C579        O588   1.263       .  A
C579        O584   1.264       .  A
C581        C610   1.436       .  S
C581        O589   1.263       .  A
C582        C621   1.438       .  S
Cd583       O589   2.467   1_455  S
C586        C623   1.438       .  S
C591        C592   1.396       .  A
C591        C596   1.402       .  A
C592        C593   1.396       .  A
C592        H597   1.085       .  S
C593        C594   1.402       .  A
C593        C616   1.443       .  S
C594        C595   1.418       .  A
C594        H598   1.079       .  S
C595        C596   1.418       .  A
C596        H599   1.079       .  S
C600        C601   1.401       .  A
C600        C605   1.396       .  A
C600        C611   1.441       .  S
C601        C602   1.415   1_556  A
C601        H606   1.079       .  S
C602        C603   1.415   1_554  A
C603        C604   1.401       .  A
C603        H607   1.079       .  S
C604        C605   1.396       .  A
C609        C610   1.206       .  T
C611        C612   1.206       .  T
C613        C614   1.207       .  T
C615        C616   1.207       .  T
C617        C618   1.208       .  T
C619        C620   1.208       .  T
C621        C622   1.208       .  T
C623        C624   1.208       .  T
