geometry optimzed in LAMMPS
_audit_creation_date              2020-11-30 
_audit_creation_method            'lammps2cif' 
_symmetry_space_group_name_H-M    'P1' 
_symmetry_Int_Tables_number       1 
_symmetry_cell_setting            triclinic 
loop_ 
_symmetry_equiv_pos_as_xyz 
  x,y,z 
_cell_length_a                    38.98404248214249 
_cell_length_b                    37.27458288272034 
_cell_length_c                    21.76662794349885 
_cell_angle_alpha                 89.41870457156469 
_cell_angle_beta                  89.96222863617936 
_cell_angle_gamma                 129.65948122901975 
loop_ 
_atom_site_label 
_atom_site_type_symbol 
_atom_site_fract_x 
_atom_site_fract_y 
_atom_site_fract_z 
_atom_site_charge 
C1          C  0.44830602  0.91724480  0.24647752     0.03110
C2          C  0.43211083  0.88982206  0.05052917    -0.13040
C3          C  0.43225348  0.85245439  0.05728960     0.00610
C4          C  0.43575158  0.83579047  0.99859802    -0.11560
C5          C  0.43820715  0.85530633  0.18831486     0.03100
C6          C  0.45333892  0.90086380  0.19212857    -0.10980
H7          H  0.42107946  0.89924473  0.08761483     0.08700
H8          H  0.43919700  0.80953599  0.99940009     0.06230
H9          H  0.46959183  0.92455006  0.15356349     0.06080
C10         C  0.42381917  0.54032357  0.25470496     0.03110
C11         C  0.40187433  0.53517089  0.05962586    -0.13040
C12         C  0.37683762  0.55014134  0.06399534     0.00610
C13         C  0.36045447  0.55130915  0.25398562    -0.11560
C14         C  0.38087312  0.55542681  0.19494872     0.03100
C15         C  0.41763234  0.55685150  0.20089837    -0.10980
H16         H  0.40391498  0.51821402  0.09794670     0.08700
H17         H  0.32964976  0.54495162  0.25287002     0.06230
H18         H  0.44079629  0.56890268  0.16342283     0.06080
C19         C  0.42477278  0.82938606  0.12357502     0.00550
C20         C  0.39928689  0.78175101  0.12505285     0.00550
O21         O  0.24401670  0.64853853  0.04951265    -0.85370
O22         O  0.33316906  0.72563112  0.07399496    -0.82410
C23         C  0.37500326  0.74966598  0.07612174     0.98100
O24         O  0.39463387  0.73772680  0.04950222    -0.82450
O25         O  0.37124251  0.65109351  0.07421560    -0.85090
C26         C  0.34569392  0.60711092  0.07817346     1.02620
O27         O  0.30849328  0.58190563  0.05302784    -0.77850
O28         O  0.24511930  0.59200598  0.07478619    -0.78040
C29         C  0.22794646  0.61143264  0.07779547     1.02570
O30         O  0.26243975  0.66234348  0.17987734    -0.85360
O31         O  0.34987895  0.74424303  0.20453683    -0.82430
C32         C  0.38095095  0.74990873  0.17618820     0.98120
O33         O  0.38722526  0.72056042  0.17925812    -0.82450
O34         O  0.37118060  0.63709419  0.20514528    -0.85060
C35         C  0.33943344  0.60136396  0.17841531     1.02590
O36         O  0.30019509  0.58727139  0.18189873    -0.77880
O37         O  0.23247778  0.59026052  0.20352718    -0.78030
C38         C  0.23049443  0.61889714  0.17769334     1.02550
Cr39       Cr  0.29926504  0.69156311  0.25198862     1.93740
Cr40       Cr  0.37510908  0.68399798  0.25198821     1.93210
Cr41       Cr  0.27563506  0.59410149  0.25327378     1.39100
O42         O  0.31665740  0.65653662  0.25253660    -1.23110
C43         C  0.36726111  0.56227152  0.12914870     0.00550
C44         C  0.35071967  0.58574009  0.12846269     0.00550
C45         C  0.19901801  0.59999600  0.12861431     0.00550
C46         C  0.15337062  0.57419796  0.13050287     0.00550
C47         C  0.06850883  0.54862848  0.25624681     0.03110
C48         C  0.08468359  0.54441981  0.06133244    -0.13040
C49         C  0.12841810  0.56074245  0.06567667     0.00610
C50         C  0.14669546  0.56289464  0.25571661    -0.11560
C51         C  0.13139434  0.56707502  0.19658397     0.03100
C52         C  0.09519565  0.56656079  0.20260117    -0.10980
H53         H  0.06198606  0.52688943  0.09967556     0.08700
H54         H  0.16901129  0.55571319  0.25580341     0.06230
H55         H  0.08581079  0.57760851  0.16507068     0.06080
C56         C  0.88533520  0.47395093  0.24365241     0.03110
C57         C  0.86910489  0.47809815  0.18858243    -0.13040
C58         C  0.82530845  0.46160053  0.18424247     0.00610
C59         C  0.80696593  0.45933828  0.24420594    -0.11560
C60         C  0.82235513  0.45526745  0.05333317     0.03100
C61         C  0.85866045  0.45596411  0.04730703    -0.10980
H62         H  0.89178675  0.49566583  0.15023093     0.08700
H63         H  0.78445655  0.46627030  0.24412979     0.06230
H64         H  0.86811234  0.44498134  0.08483263     0.06080
C65         C  0.52800003  0.47897173  0.24528774     0.03110
C66         C  0.53424672  0.46248800  0.04908847    -0.13040
C67         C  0.57110068  0.46407052  0.05503385     0.00610
C68         C  0.59156371  0.46828546  0.24599604    -0.11560
C69         C  0.57512321  0.46935431  0.18598573     0.03100
C70         C  0.54995867  0.48417253  0.19035657    -0.10980
H71         H  0.51107372  0.45038241  0.08656663     0.08700
H72         H  0.62246764  0.47486066  0.24712026     0.06230
H73         H  0.54786563  0.50109442  0.15204103     0.06080
C74         C  0.75465476  0.42194035  0.12130707     0.00550
C75         C  0.80033337  0.44800509  0.11941817     0.00550
C76         C  0.58481432  0.45734002  0.12082800     0.00550
C77         C  0.60157760  0.43408496  0.12149810     0.00550
O78         O  0.69147806  0.35927174  0.07005694    -0.85370
O79         O  0.60434938  0.27687172  0.04539254    -0.82410
C80         C  0.57309653  0.27083745  0.07374947     0.98100
O81         O  0.56640818  0.29985724  0.07068014    -0.82450
O82         O  0.58156469  0.38285753  0.04482860    -0.85090
C83         C  0.61313654  0.41872723  0.07154063     1.02620
O84         O  0.65252345  0.43323438  0.06803546    -0.77850
O85         O  0.72083659  0.43117111  0.04637845    -0.78040
C86         C  0.72316261  0.40278552  0.07222964     1.02570
O87         O  0.70990423  0.37321228  0.20042655    -0.85360
O88         O  0.62097102  0.29555008  0.17593936    -0.82430
C89         C  0.57909210  0.27116032  0.17381175     0.98120
O90         O  0.55916341  0.28275684  0.20041650    -0.82450
O91         O  0.58166689  0.36898546  0.17574638    -0.85060
C92         C  0.60689685  0.41294878  0.17178229     1.02590
O93         O  0.64409822  0.43843244  0.19690164    -0.77880
O94         O  0.70809038  0.42925387  0.17513866    -0.78030
C95         C  0.72564618  0.41022354  0.17213676     1.02550
Cr96       Cr  0.65472805  0.32979910  0.24794437     1.93740
Cr97       Cr  0.57817808  0.33629190  0.24795881     1.93210
Cr98       Cr  0.67736470  0.42677848  0.24665439     1.39100
O99         O  0.63676771  0.36430704  0.24739722    -1.23110
C100        C  0.55500115  0.23900971  0.12488357     0.00550
C101        C  0.52981603  0.19141081  0.12636143     0.00550
C102        C  0.50671702  0.10373683  0.25343905     0.03110
C103        C  0.50160780  0.12004239  0.05780461    -0.13040
C104        C  0.51653015  0.16551555  0.06161973     0.00610
C105        C  0.51885625  0.18495036  0.25133817    -0.11560
C106        C  0.52248918  0.16839693  0.19264411     0.03100
C107        C  0.52284704  0.13117044  0.19939706    -0.11060
H108        H  0.48540301  0.09633988  0.09636239     0.08700
H109        H  0.51514823  0.21100427  0.25053953     0.06230
H110        H  0.53395386  0.12183482  0.16230510     0.06080
C111        C  0.02184965  0.53035083  0.25362724    -0.05480
C112        C  0.98728913  0.48406063  0.02235027    -0.32910
C113        C  0.94269490  0.46491908  0.01859153     0.36340
C114        C  0.93199945  0.49224042  0.24622034    -0.05840
C115        C  0.96655810  0.53852738  0.22747834    -0.32810
C116        C  0.01115563  0.55766887  0.23123325     0.36240
H117        H  0.99490310  0.46234354  0.03890883     0.16610
O118        O  0.90987020  0.41930464  0.03595872    -0.60310
H119        H  0.95894094  0.56024090  0.21091631     0.16630
O120        O  0.04398276  0.60327780  0.21384700    -0.60400
H121        H  0.05286706  0.62127157  0.25224003     0.43630
H122        H  0.90097677  0.40132330  0.99755245     0.43580
C123        C  0.45117014  0.52538416  0.25278827    -0.05480
C124        C  0.43223928  0.48006607  0.02258607    -0.32910
C125        C  0.45648413  0.46420116  0.01972596     0.36340
C126        C  0.50063960  0.49389875  0.24724236    -0.05840
C127        C  0.51956762  0.53921423  0.22745764    -0.32810
C128        C  0.49532603  0.55507961  0.23032075     0.36240
H129        H  0.39812709  0.45651445  0.03929518     0.16610
O130        O  0.43641359  0.41936996  0.03802230    -0.60310
H131        H  0.55368028  0.56276849  0.21075010     0.16630
O132        O  0.51540426  0.59991549  0.21203797    -0.60400
H133        H  0.52740187  0.61840901  0.25017159     0.43630
H134        H  0.42439937  0.40086661  0.99989801     0.43580
C135        C  0.49251411  0.05628031  0.25227496    -0.05480
C136        C  0.44878621  0.01823852  0.02026356    -0.32910
C137        C  0.43364628  0.97272309  0.01778216     0.36340
C138        C  0.46252642  0.96470988  0.24758000    -0.05840
C139        C  0.50625130  0.00274913  0.22956883    -0.32810
C140        C  0.52139096  0.04826882  0.23204554     0.36240
H141        H  0.42601122  0.02381777  0.03522610     0.16610
O142        O  0.39041223  0.93633462  0.03428377    -0.60310
H143        H  0.52902219  0.99716548  0.21460239     0.16630
O144        O  0.56461877  0.08465992  0.21552258    -0.60400
H145        H  0.58152949  0.09511235  0.25443403     0.43630
H146        H  0.37351671  0.92587258  0.99535844     0.43580
C147        C  0.44830598  0.91724478  0.49647764     0.03110
C148        C  0.43211077  0.88982205  0.30052920    -0.13040
C149        C  0.43225346  0.85245441  0.30728961     0.00610
C150        C  0.43575156  0.83579051  0.24859799    -0.11560
C151        C  0.43820716  0.85530636  0.43831491     0.03100
C152        C  0.45333888  0.90086380  0.44212865    -0.10980
H153        H  0.42107940  0.89924471  0.33761488     0.08700
H154        H  0.43919704  0.80953607  0.24940002     0.06230
H155        H  0.46959175  0.92455007  0.40356357     0.06080
C156        C  0.42382222  0.54032727  0.50470464     0.03110
C157        C  0.40187810  0.53517516  0.30962546    -0.13040
C158        C  0.37683983  0.55014376  0.31399513     0.00610
C159        C  0.36045577  0.55131029  0.50398538    -0.11560
C160        C  0.38087517  0.55542912  0.44494858     0.03100
C161        C  0.41763533  0.55685542  0.45089843    -0.10980
H162        H  0.40392000  0.51821939  0.34794647     0.08700
H163        H  0.32965066  0.54495200  0.50286967     0.06230
H164        H  0.44079980  0.56890770  0.41342324     0.06080
C165        C  0.42477279  0.82938610  0.37357505     0.00550
C166        C  0.39928690  0.78175105  0.37505289     0.00550
O167        O  0.24401669  0.64853862  0.29951269    -0.85370
O168        O  0.33316904  0.72563118  0.32399505    -0.82410
C169        C  0.37500325  0.74966606  0.32612177     0.98100
O170        O  0.39463388  0.73772697  0.29950208    -0.82450
O171        O  0.37124262  0.65109382  0.32421550    -0.85090
C172        C  0.34569409  0.60711125  0.32817337     1.02620
O173        O  0.30849343  0.58190588  0.30302779    -0.77850
O174        O  0.24511940  0.59200617  0.32478627    -0.78040
C175        C  0.22794650  0.61143276  0.32779554     1.02570
O176        O  0.26243983  0.66234352  0.42987745    -0.85360
O177        O  0.34987902  0.74424306  0.45453695    -0.82430
C178        C  0.38095100  0.74990877  0.42618825     0.98120
O179        O  0.38722534  0.72056049  0.42925817    -0.82450
O180        O  0.37118076  0.63709433  0.45514539    -0.85060
C181        C  0.33943364  0.60136423  0.42841520     1.02590
O182        O  0.30019530  0.58727166  0.43189855    -0.77880
O183        O  0.23247787  0.59026056  0.45352722    -0.78030
C184        C  0.23049450  0.61889719  0.42769343     1.02550
Cr185      Cr  0.29926512  0.69156311  0.50198874     1.93740
Cr186      Cr  0.37510920  0.68399807  0.50198829     1.93210
Cr187      Cr  0.27563522  0.59410154  0.50327372     1.39100
O188        O  0.31665752  0.65653666  0.50253667    -1.23110
C189        C  0.36726276  0.56227330  0.37914854     0.00550
C190        C  0.35071998  0.58574051  0.37846255     0.00550
C191        C  0.19901805  0.59999608  0.37861439     0.00550
C192        C  0.15337066  0.57419801  0.38050292     0.00550
C193        C  0.06850881  0.54862838  0.50624687     0.03110
C194        C  0.08468362  0.54441984  0.31133252    -0.13040
C195        C  0.12841814  0.56074252  0.31567673     0.00610
C196        C  0.14669549  0.56289462  0.50571661    -0.11560
C197        C  0.13139436  0.56707502  0.44658401     0.03100
C198        C  0.09519564  0.56656074  0.45260124    -0.10980
H199        H  0.06198609  0.52688943  0.34967563     0.08700
H200        H  0.16901134  0.55571319  0.50580337     0.06230
H201        H  0.08581078  0.57760849  0.41507078     0.06080
C202        C  0.88533519  0.47395093  0.49365253     0.03110
C203        C  0.86910491  0.47809816  0.43858252    -0.13040
C204        C  0.82530849  0.46160059  0.43424253     0.00610
C205        C  0.80696595  0.45933836  0.49420598    -0.11560
C206        C  0.82235515  0.45526745  0.30333321     0.03100
C207        C  0.85866046  0.45596408  0.29730708    -0.10980
H208        H  0.89178678  0.49566581  0.40023102     0.08700
H209        H  0.78445658  0.46627039  0.49412982     0.06230
H210        H  0.86811235  0.44498133  0.33483271     0.06080
C211        C  0.52800324  0.47897573  0.49528685     0.03110
C212        C  0.53424970  0.46249193  0.29908852    -0.13040
C213        C  0.57110272  0.46407284  0.30503371     0.00610
C214        C  0.59156487  0.46828660  0.49599607    -0.11560
C215        C  0.57512543  0.46935675  0.43598553     0.03100
C216        C  0.54996243  0.48417680  0.44035618    -0.10980
H217        H  0.51107723  0.45038745  0.33656704     0.08700
H218        H  0.62246844  0.47486109  0.49712072     0.06230
H219        H  0.54787062  0.50109978  0.40204082     0.06080
C220        C  0.75465481  0.42194042  0.37130716     0.00550
C221        C  0.80033341  0.44800514  0.36941822     0.00550
C222        C  0.58481597  0.45734180  0.37082784     0.00550
C223        C  0.60157791  0.43408538  0.37149796     0.00550
O224        O  0.69147814  0.35927176  0.32005704    -0.85370
O225        O  0.60434944  0.27687175  0.29539266    -0.82410
C226        C  0.57309658  0.27083749  0.32374953     0.98100
O227        O  0.56640827  0.29985731  0.32068019    -0.82450
O228        O  0.58156485  0.38285766  0.29482871    -0.85090
C229        C  0.61313674  0.41872749  0.32154053     1.02620
O230        O  0.65252365  0.43323464  0.31803529    -0.77850
O231        O  0.72083668  0.43117114  0.29637850    -0.78040
C232        C  0.72316268  0.40278555  0.32222973     1.02570
O233        O  0.70990421  0.37321237  0.45042659    -0.85360
O234        O  0.62097101  0.29555014  0.42593946    -0.82430
C235        C  0.57909210  0.27116040  0.42381179     0.98120
O236        O  0.55916343  0.28275701  0.45041636    -0.82450
O237        O  0.58166700  0.36898576  0.42574628    -0.85060
C238        C  0.60689702  0.41294910  0.42178220     1.02590
O239        O  0.64409837  0.43843268  0.44690158    -0.77880
O240        O  0.70809048  0.42925404  0.42513872    -0.78030
C241        C  0.72564623  0.41022366  0.42213683     1.02550
Cr242      Cr  0.65472805  0.32979924  0.49794442     1.93740
Cr243      Cr  0.57817808  0.33629207  0.49795870     1.93210
Cr244      Cr  0.67736473  0.42677865  0.49665442     1.39100
O245        O  0.63676772  0.36430720  0.49739720    -1.23110
C246        C  0.55500116  0.23900975  0.37488361     0.00550
C247        C  0.52981605  0.19141084  0.37636146     0.00550
C248        C  0.50671691  0.10373681  0.50343909     0.03110
C249        C  0.50160777  0.12004239  0.30780470    -0.13040
C250        C  0.51653016  0.16551558  0.31161978     0.00610
C251        C  0.51885624  0.18495040  0.50133814    -0.11560
C252        C  0.52248917  0.16839696  0.44264412     0.03100
C253        C  0.52284697  0.13117043  0.44939709    -0.11060
H254        H  0.48540293  0.09633989  0.34636247     0.08700
H255        H  0.51514827  0.21100435  0.50053946     0.06230
H256        H  0.53395380  0.12183480  0.41230516     0.06080
C257        C  0.02184964  0.53035076  0.50362735    -0.05480
C258        C  0.98728914  0.48406062  0.27235036    -0.32910
C259        C  0.94269491  0.46491904  0.26859160     0.36340
C260        C  0.93199944  0.49224040  0.49622050    -0.05840
C261        C  0.96655811  0.53852734  0.47747846    -0.32810
C262        C  0.01115563  0.55766881  0.48123335     0.36240
H263        H  0.99490314  0.46234353  0.28890888     0.16610
O264        O  0.90987022  0.41930458  0.28595875    -0.60310
H265        H  0.95894096  0.56024087  0.46091639     0.16630
O266        O  0.04398276  0.60327773  0.46384707    -0.60400
H267        H  0.05286710  0.62127151  0.50224009     0.43630
H268        H  0.90097682  0.40132326  0.24755248     0.43580
C269        C  0.45117334  0.52538808  0.50278736    -0.05480
C270        C  0.43224336  0.48007106  0.27258770    -0.32910
C271        C  0.45648805  0.46420603  0.26972780     0.36340
C272        C  0.50064297  0.49390293  0.49724101    -0.05840
C273        C  0.51957171  0.53921924  0.47745931    -0.32810
C274        C  0.49532996  0.55508450  0.48032264     0.36240
H275        H  0.39813173  0.45652005  0.28929909     0.16610
O276        O  0.43641799  0.41937556  0.28802723    -0.60310
H277        H  0.55368493  0.56277410  0.46075404     0.16630
O278        O  0.51540867  0.59992110  0.46204293    -0.60400
H279        H  0.52740527  0.61841307  0.50017781     0.43630
H280        H  0.42440276  0.40087065  0.24990420     0.43580
C281        C  0.49251402  0.05628029  0.50227505    -0.05480
C282        C  0.44878614  0.01823851  0.27026366    -0.32910
C283        C  0.43364619  0.97272308  0.26778223     0.36340
C284        C  0.46252637  0.96470986  0.49758016    -0.05840
C285        C  0.50625122  0.00274912  0.47956893    -0.32810
C286        C  0.52139087  0.04826881  0.48204560     0.36240
H287        H  0.42601116  0.02381777  0.28522617     0.16610
O288        O  0.39041213  0.93633461  0.28428380    -0.60310
H289        H  0.52902212  0.99716548  0.46460244     0.16630
O290        O  0.56461867  0.08465990  0.46552258    -0.60400
H291        H  0.58152941  0.09511238  0.50443402     0.43630
H292        H  0.37351662  0.92587261  0.24535846     0.43580
C293        C  0.44830611  0.91724481  0.74647761     0.03110
C294        C  0.43211076  0.88982202  0.55052931    -0.13040
C295        C  0.43225349  0.85245439  0.55728968     0.00610
C296        C  0.43575160  0.83579053  0.49859803    -0.11560
C297        C  0.43820724  0.85530634  0.68831494     0.03100
C298        C  0.45333901  0.90086381  0.69212865    -0.10980
H299        H  0.42107941  0.89924466  0.58761503     0.08700
H300        H  0.43919711  0.80953611  0.49940002     0.06230
H301        H  0.46959190  0.92455006  0.65356356     0.06080
C302        C  0.42381914  0.54032342  0.75470551     0.03110
C303        C  0.40188026  0.53517737  0.55962494    -0.13040
C304        C  0.37684105  0.55014486  0.56399494     0.00610
C305        C  0.36045467  0.55130921  0.75398534    -0.11560
C306        C  0.38087443  0.55542811  0.69494884     0.03100
C307        C  0.41763384  0.55685318  0.70089950    -0.10980
H308        H  0.40392185  0.51822087  0.59794522     0.08700
H309        H  0.32964992  0.54495160  0.75286919     0.06230
H310        H  0.44079920  0.56890612  0.66342536     0.06080
C311        C  0.42477285  0.82938607  0.62357511     0.00550
C312        C  0.39928699  0.78175103  0.62505298     0.00550
O313        O  0.24401676  0.64853854  0.54951279    -0.85370
O314        O  0.33316911  0.72563114  0.57399519    -0.82410
C315        C  0.37500333  0.74966606  0.57612187     0.98100
O316        O  0.39463398  0.73772703  0.54950211    -0.82450
O317        O  0.37124274  0.65109389  0.57421562    -0.85090
C318        C  0.34569431  0.60711132  0.57817336     1.02620
O319        O  0.30849371  0.58190590  0.55302757    -0.77850
O320        O  0.24511952  0.59200609  0.57478628    -0.78040
C321        C  0.22794656  0.61143264  0.57779555     1.02570
O322        O  0.26243983  0.66234335  0.67987743    -0.85360
O323        O  0.34987902  0.74424292  0.70453691    -0.82430
C324        C  0.38095108  0.74990870  0.67618833     0.98120
O325        O  0.38722546  0.72056045  0.67925830    -0.82450
O326        O  0.37118079  0.63709420  0.70514546    -0.85060
C327        C  0.33943372  0.60136413  0.67841518     1.02590
O328        O  0.30019535  0.58727151  0.68189851    -0.77880
O329        O  0.23247787  0.59026039  0.70352718    -0.78030
C330        C  0.23049449  0.61889702  0.67769341     1.02550
Cr331      Cr  0.29926512  0.69156298  0.75198869     1.93740
Cr332      Cr  0.37510920  0.68399790  0.75198840     1.93210
Cr333      Cr  0.27563520  0.59410137  0.75327369     1.39100
O334        O  0.31665751  0.65653651  0.75253669    -1.23110
C335        C  0.36726307  0.56227337  0.62914853     0.00550
C336        C  0.35072019  0.58574052  0.62846252     0.00550
C337        C  0.19901807  0.59999590  0.62861437     0.00550
C338        C  0.15337068  0.57419792  0.63050290     0.00550
C339        C  0.06850881  0.54862837  0.75624676     0.03110
C340        C  0.08468361  0.54441972  0.56133255    -0.13040
C341        C  0.12841816  0.56074244  0.56567673     0.00610
C342        C  0.14669546  0.56289454  0.75571657    -0.11560
C343        C  0.13139437  0.56707496  0.69658396     0.03100
C344        C  0.09519567  0.56656073  0.70260115    -0.10980
H345        H  0.06198609  0.52688927  0.59967567     0.08700
H346        H  0.16901131  0.55571310  0.75580333     0.06230
H347        H  0.08581084  0.57760847  0.66507067     0.06080
C348        C  0.88533521  0.47395103  0.74365247     0.03110
C349        C  0.86910492  0.47809829  0.68858249    -0.13040
C350        C  0.82530847  0.46160067  0.68424254     0.00610
C351        C  0.80696592  0.45933838  0.74420598    -0.11560
C352        C  0.82235514  0.45526751  0.55333326     0.03100
C353        C  0.85866043  0.45596409  0.54730718    -0.10980
H354        H  0.89178677  0.49566597  0.65023099     0.08700
H355        H  0.78445653  0.46627039  0.74412987     0.06230
H356        H  0.86811229  0.44498134  0.58483284     0.06080
C357        C  0.52800034  0.47897222  0.74528712     0.03110
C358        C  0.53425133  0.46249436  0.54908745    -0.13040
C359        C  0.57110355  0.46407397  0.55503344     0.00610
C360        C  0.59156362  0.46828550  0.74599631    -0.11560
C361        C  0.57512432  0.46935577  0.68598570     0.03100
C362        C  0.54996045  0.48417480  0.69035667    -0.10980
H363        H  0.51107801  0.45038927  0.58656495     0.08700
H364        H  0.62246755  0.47486072  0.74712110     0.06230
H365        H  0.54786903  0.50109857  0.65204206     0.06080
C366        C  0.75465480  0.42194060  0.62130718     0.00550
C367        C  0.80033340  0.44800524  0.61941825     0.00550
C368        C  0.58481574  0.45734181  0.62082785     0.00550
C369        C  0.60157772  0.43408540  0.62149797     0.00550
O370        O  0.69147815  0.35927194  0.57005707    -0.85370
O371        O  0.60434944  0.27687190  0.54539270    -0.82410
C372        C  0.57309651  0.27083756  0.57374945     0.98100
O373        O  0.56640815  0.29985735  0.57068006    -0.82450
O374        O  0.58156483  0.38285780  0.54482864    -0.85090
C375        C  0.61313668  0.41872760  0.57154055     1.02620
O376        O  0.65252362  0.43323480  0.56803533    -0.77850
O377        O  0.72083668  0.43117131  0.54637855    -0.78040
C378        C  0.72316269  0.40278572  0.57222976     1.02570
O379        O  0.70990413  0.37321247  0.70042650    -0.85360
O380        O  0.62097093  0.29555018  0.67593932    -0.82430
C381        C  0.57909201  0.27116040  0.67381169     0.98120
O382        O  0.55916332  0.28275696  0.70041632    -0.82450
O383        O  0.58166688  0.36898571  0.67574616    -0.85060
C384        C  0.60689681  0.41294905  0.67178222     1.02590
O385        O  0.64409810  0.43843267  0.69690180    -0.77880
O386        O  0.70809036  0.42925413  0.67513872    -0.78030
C387        C  0.72564616  0.41022379  0.67213682     1.02550
Cr388      Cr  0.65472797  0.32979924  0.74794430     1.93740
Cr389      Cr  0.57817796  0.33629199  0.74795862     1.93210
Cr390      Cr  0.67736457  0.42677861  0.74665449     1.39100
O391        O  0.63676761  0.36430716  0.74739714    -1.23110
C392        C  0.55500107  0.23900978  0.62488353     0.00550
C393        C  0.52981599  0.19141087  0.62636140     0.00550
C394        C  0.50671696  0.10373684  0.75343897     0.03110
C395        C  0.50160765  0.12004239  0.55780470    -0.13040
C396        C  0.51653009  0.16551560  0.56161975     0.00610
C397        C  0.51885620  0.18495038  0.75133810    -0.11560
C398        C  0.52248915  0.16839698  0.69264405     0.03100
C399        C  0.52284699  0.13117047  0.69939698    -0.11060
H400        H  0.48540280  0.09633990  0.59636249     0.08700
H401        H  0.51514820  0.21100431  0.75053945     0.06230
H402        H  0.53395380  0.12183485  0.66230501     0.06080
C403        C  0.02184965  0.53035077  0.75362721    -0.05480
C404        C  0.98728911  0.48406057  0.52235055    -0.32910
C405        C  0.94269489  0.46491902  0.51859182     0.36340
C406        C  0.93199945  0.49224047  0.74622040    -0.05840
C407        C  0.96655814  0.53852739  0.72747828    -0.32810
C408        C  0.01115566  0.55766883  0.73123315     0.36240
H409        H  0.99490309  0.46234347  0.53890910     0.16610
O410        O  0.90987018  0.41930458  0.53595905    -0.60310
H411        H  0.95894101  0.56024093  0.71091619     0.16630
O412        O  0.04398280  0.60327773  0.71384679    -0.60400
H413        H  0.05286717  0.62127155  0.75223978     0.43630
H414        H  0.90097676  0.40132322  0.49755281     0.43580
C415        C  0.45117011  0.52538408  0.75278866    -0.05480
C416        C  0.43224582  0.48007411  0.52258335    -0.32910
C417        C  0.45649058  0.46420920  0.51972313     0.36340
C418        C  0.50063992  0.49389920  0.74724185    -0.05840
C419        C  0.51956945  0.53921644  0.72746382    -0.32810
C420        C  0.49532763  0.55508157  0.73032750     0.36240
H421        H  0.39813361  0.45652240  0.53929236     0.16610
O422        O  0.43641980  0.41937785  0.53801895    -0.60310
H423        H  0.55368331  0.56277206  0.71076110     0.16630
O424        O  0.51540709  0.59991910  0.71205162    -0.60400
H425        H  0.52740189  0.61840901  0.75018823     0.43630
H426        H  0.42440629  0.40087489  0.49989428     0.43580
C427        C  0.49251409  0.05628031  0.75227489    -0.05480
C428        C  0.44878607  0.01823848  0.52026384    -0.32910
C429        C  0.43364615  0.97272305  0.51778246     0.36340
C430        C  0.46252648  0.96470989  0.74758008    -0.05840
C431        C  0.50625131  0.00274916  0.72956874    -0.32810
C432        C  0.52139093  0.04826884  0.73204537     0.36240
H433        H  0.42601109  0.02381773  0.53522639     0.16610
O434        O  0.39041211  0.93633459  0.53428413    -0.60310
H435        H  0.52902221  0.99716553  0.71460223     0.16630
O436        O  0.56461870  0.08465994  0.71552225    -0.60400
H437        H  0.58152949  0.09511245  0.75443365     0.43630
H438        H  0.37351655  0.92587254  0.49535883     0.43580
C439        C  0.44830613  0.91724482  0.99647750     0.03110
C440        C  0.43211084  0.88982203  0.80052928    -0.13040
C441        C  0.43225351  0.85245437  0.80728967     0.00610
C442        C  0.43575162  0.83579049  0.74859806    -0.11560
C443        C  0.43820722  0.85530631  0.93831489     0.03100
C444        C  0.45333905  0.90086380  0.94212857    -0.10980
H445        H  0.42107948  0.89924469  0.83761497     0.08700
H446        H  0.43919707  0.80953603  0.74940009     0.06230
H447        H  0.46959198  0.92455006  0.90356348     0.06080
C448        C  0.42381598  0.54031959  0.00470589     0.03110
C449        C  0.40187658  0.53517319  0.80962530    -0.13040
C450        C  0.37683888  0.55014247  0.81399514     0.00610
C451        C  0.36045335  0.55130805  0.00398558    -0.11560
C452        C  0.38087236  0.55542575  0.94494899     0.03100
C453        C  0.41763078  0.55684914  0.95089949    -0.10980
H454        H  0.40391690  0.51821555  0.84794536     0.08700
H455        H  0.32964901  0.54495123  0.00286953     0.06230
H456        H  0.44079562  0.56890099  0.91342501     0.06080
C457        C  0.42477284  0.82938603  0.87357508     0.00550
C458        C  0.39928698  0.78175098  0.87505293     0.00550
O459        O  0.24401678  0.64853844  0.79951275    -0.85370
O460        O  0.33316913  0.72563108  0.82399510    -0.82410
C461        C  0.37500334  0.74966598  0.82612184     0.98100
O462        O  0.39463398  0.73772686  0.79950225    -0.82450
O463        O  0.37124264  0.65109358  0.82421572    -0.85090
C464        C  0.34569415  0.60711099  0.82817344     1.02620
O465        O  0.30849357  0.58190566  0.80302762    -0.77850
O466        O  0.24511942  0.59200591  0.82478621    -0.78040
C467        C  0.22794652  0.61143252  0.82779548     1.02570
O468        O  0.26243975  0.66234331  0.92987732    -0.85360
O469        O  0.34987895  0.74424288  0.95453679    -0.82430
C470        C  0.38095103  0.74990866  0.92618828     0.98120
O471        O  0.38722538  0.72056038  0.92925826    -0.82450
O472        O  0.37118063  0.63709406  0.95514536    -0.85060
C473        C  0.33943352  0.60136386  0.92841528     1.02590
O474        O  0.30019515  0.58727124  0.93189868    -0.77880
O475        O  0.23247778  0.59026035  0.95352712    -0.78030
C476        C  0.23049442  0.61889697  0.92769332     1.02550
Cr477      Cr  0.29926505  0.69156298  0.00198858     1.93740
Cr478      Cr  0.37510908  0.68399781  0.00198832     1.93210
Cr479      Cr  0.27563503  0.59410132  0.00327374     1.39100
O480        O  0.31665740  0.65653646  0.00253662    -1.23110
C481        C  0.36726143  0.56227159  0.87914868     0.00550
C482        C  0.35071989  0.58574009  0.87846266     0.00550
C483        C  0.19901801  0.59999583  0.87861429     0.00550
C484        C  0.15337063  0.57419786  0.88050284     0.00550
C485        C  0.06850882  0.54862845  0.00624671     0.03110
C486        C  0.08468359  0.54441970  0.81133246    -0.13040
C487        C  0.12841812  0.56074238  0.81567667     0.00610
C488        C  0.14669543  0.56289456  0.00571657    -0.11560
C489        C  0.13139435  0.56707496  0.94658392     0.03100
C490        C  0.09519567  0.56656075  0.95260108    -0.10980
H491        H  0.06198606  0.52688928  0.84967558     0.08700
H492        H  0.16901126  0.55571310  0.00580337     0.06230
H493        H  0.08581083  0.57760848  0.91507058     0.06080
C494        C  0.88533521  0.47395101  0.99365236     0.03110
C495        C  0.86910489  0.47809826  0.93858241    -0.13040
C496        C  0.82530844  0.46160061  0.93424248     0.00610
C497        C  0.80696590  0.45933830  0.99420594    -0.11560
C498        C  0.82235512  0.45526751  0.80333322     0.03100
C499        C  0.85866043  0.45596414  0.79730711    -0.10980
H500        H  0.89178674  0.49566598  0.90023091     0.08700
H501        H  0.78445651  0.46627030  0.99412983     0.06230
H502        H  0.86811230  0.44498136  0.83483274     0.06080
C503        C  0.52799700  0.47896804  0.99528809     0.03110
C504        C  0.53424840  0.46249054  0.79908733    -0.13040
C505        C  0.57110153  0.46407168  0.80503357     0.00610
C506        C  0.59156244  0.46828434  0.99599628    -0.11560
C507        C  0.57512202  0.46935327  0.93598592     0.03100
C508        C  0.54995655  0.48417037  0.94035711    -0.10980
H509        H  0.51107450  0.45038430  0.83656440     0.08700
H510        H  0.62246676  0.47486031  0.99712061     0.06230
H511        H  0.54786387  0.50109306  0.90204235     0.06080
C512        C  0.75465475  0.42194053  0.87130710     0.00550
C513        C  0.80033335  0.44800518  0.86941820     0.00550
C514        C  0.58481405  0.45734001  0.87082801     0.00550
C515        C  0.60157739  0.43408497  0.87149811     0.00550
O516        O  0.69147807  0.35927190  0.82005696    -0.85370
O517        O  0.60434938  0.27687187  0.79539259    -0.82410
C518        C  0.57309646  0.27083752  0.82374940     0.98100
O519        O  0.56640806  0.29985728  0.82068001    -0.82450
O520        O  0.58156466  0.38285766  0.79482852    -0.85090
C521        C  0.61313647  0.41872734  0.82154066     1.02620
O522        O  0.65252340  0.43323454  0.81803551    -0.77850
O523        O  0.72083659  0.43117128  0.79637851    -0.78040
C524        C  0.72316262  0.40278569  0.82222967     1.02570
O525        O  0.70990415  0.37321238  0.95042646    -0.85360
O526        O  0.62097095  0.29555012  0.92593923    -0.82430
C527        C  0.57909202  0.27116032  0.92381165     0.98120
O528        O  0.55916330  0.28275678  0.95041646    -0.82450
O529        O  0.58166676  0.36898539  0.92574625    -0.85060
C530        C  0.60689663  0.41294872  0.92178230     1.02590
O531        O  0.64409793  0.43843242  0.94690186    -0.77880
O532        O  0.70809025  0.42925395  0.92513864    -0.78030
C533        C  0.72564612  0.41022368  0.92213675     1.02550
Cr534      Cr  0.65472797  0.32979911  0.99794425     1.93740
Cr535      Cr  0.57817795  0.33629182  0.99795872     1.93210
Cr536      Cr  0.67736453  0.42677844  0.99665444     1.39100
O537        O  0.63676759  0.36430700  0.99739715    -1.23110
C538        C  0.55500106  0.23900974  0.87488348     0.00550
C539        C  0.52981598  0.19141083  0.87636137     0.00550
C540        C  0.50671706  0.10373685  0.00343894     0.03110
C541        C  0.50160770  0.12004239  0.80780461    -0.13040
C542        C  0.51653008  0.16551557  0.81161970     0.00610
C543        C  0.51885621  0.18495034  0.00133813    -0.11560
C544        C  0.52248916  0.16839695  0.94264404     0.03100
C545        C  0.52284705  0.13117048  0.94939695    -0.11060
H546        H  0.48540289  0.09633989  0.84636240     0.08700
H547        H  0.51514816  0.21100423  0.00053952     0.06230
H548        H  0.53395386  0.12183487  0.91230497     0.06080
C549        C  0.02184966  0.53035083  0.00362711    -0.05480
C550        C  0.98728910  0.48406060  0.77235044    -0.32910
C551        C  0.94269488  0.46491908  0.76859173     0.36340
C552        C  0.93199946  0.49224048  0.99622026    -0.05840
C553        C  0.96655812  0.53852741  0.97747819    -0.32810
C554        C  0.01115565  0.55766887  0.98123307     0.36240
H555        H  0.99490306  0.46234349  0.78890902     0.16610
O556        O  0.90987017  0.41930465  0.78595899    -0.60310
H557        H  0.95894098  0.56024094  0.96091612     0.16630
O558        O  0.04398278  0.60327778  0.96384675    -0.60400
H559        H  0.05286712  0.62127159  0.00223975     0.43630
H560        H  0.90097671  0.40132327  0.74755275     0.43580
C561        C  0.45116680  0.52538001  0.00278969    -0.05480
C562        C  0.43224182  0.48006921  0.77258138    -0.32910
C563        C  0.45648674  0.46420443  0.76972092     0.36340
C564        C  0.50063642  0.49389485  0.99724334    -0.05840
C565        C  0.51956519  0.53921121  0.97746211    -0.32810
C566        C  0.49532354  0.55507648  0.98032555     0.36240
H567        H  0.39812899  0.45651684  0.78928795     0.16610
O568        O  0.43641542  0.41937229  0.78801340    -0.60310
H569        H  0.55367845  0.56276618  0.96075698     0.16630
O570        O  0.51540250  0.59991325  0.96204643    -0.60400
H571        H  0.52739837  0.61840479  0.00018172     0.43630
H572        H  0.42440305  0.40087102  0.74988735     0.43580
C573        C  0.49251416  0.05628033  0.00227481    -0.05480
C574        C  0.44878616  0.01823850  0.77026375    -0.32910
C575        C  0.43364625  0.97272308  0.76778239     0.36340
C576        C  0.46252652  0.96470991  0.99757993    -0.05840
C577        C  0.50625137  0.00274917  0.97956868    -0.32810
C578        C  0.52139101  0.04826885  0.98204534     0.36240
H579        H  0.42601118  0.02381774  0.78522634     0.16610
O580        O  0.39041223  0.93633461  0.78428412    -0.60310
H581        H  0.52902227  0.99716553  0.96460222     0.16630
O582        O  0.56461880  0.08465995  0.96552230    -0.60400
H583        H  0.58152956  0.09511242  0.00443372     0.43630
H584        H  0.37351665  0.92587252  0.74535883     0.43580
loop_ 
_geom_bond_atom_site_label_1 
_geom_bond_atom_site_label_2 
_geom_bond_distance 
_geom_bond_site_symmetry_2 
_ccdc_geom_bond_type 
C1            C6   1.406       .  A
C1          C148   1.407       .  A
C1          C138   1.479       .  S
C2            C3   1.403       .  A
C2          C439   1.407   1_554  A
C2            H7   1.076       .  S
C3            C4   1.470   1_554  A
C3           C19   1.600       .  S
C4          C443   1.467       .  A
C4            H8   1.069       .  S
C5            C6   1.401       .  A
C5          C150   1.467       .  A
C5           C19   1.605       .  S
C6            H9   1.075       .  S
C10          C15   1.409       .  A
C10         C157   1.408       .  A
C10         C123   1.486       .  S
C11          C12   1.403       .  A
C11         C448   1.408       .  A
C11          H16   1.075       .  S
C12         C451   1.467       .  A
C12          C43   1.607       .  S
C13          C14   1.465       .  A
C13         C158   1.467       .  A
C13          H17   1.066       .  S
C14          C15   1.406       .  A
C14          C43   1.601       .  S
C15          H18   1.075       .  S
C19          C20   1.374       .  D
C20          C32   1.431       .  S
C20          C23   1.429       .  S
O21          C29   1.249       .  A
O21        Cr477   1.958       .  S
O22          C23   1.265       .  A
O22        Cr477   1.928       .  S
C23          O24   1.249       .  A
O24        Cr478   1.938       .  S
O25          C26   1.265       .  A
O25        Cr478   1.930       .  S
C26          C44   1.433       .  S
C26          O27   1.248       .  A
O27        Cr479   1.938       .  S
O28          C29   1.264       .  A
O28        Cr479   1.929       .  S
C29          C45   1.433       .  S
O30          C38   1.266       .  A
O30         Cr39   1.937       .  S
O31          C32   1.250       .  A
O31         Cr39   1.956       .  S
C32          O33   1.265       .  A
O33         Cr40   1.929       .  S
O34          C35   1.248       .  A
O34         Cr40   1.953       .  S
C35          C44   1.433       .  S
C35          O36   1.263       .  A
O36         Cr41   1.927       .  S
O37          C38   1.247       .  A
O37         Cr41   1.929       .  S
C38          C45   1.434       .  S
Cr39        O167   1.958       .  S
Cr39        O168   1.928       .  S
Cr39         O42   1.815       .  S
Cr40        O170   1.938       .  S
Cr40        O171   1.930       .  S
Cr40         O42   1.806       .  S
Cr41        O173   1.938       .  S
Cr41        O174   1.929       .  S
Cr41         O42   1.795       .  S
C43          C44   1.379       .  D
C45          C46   1.381       .  D
C46          C51   1.604       .  S
C46          C49   1.607       .  S
C47          C52   1.410       .  A
C47         C194   1.408       .  A
C47         C111   1.482       .  S
C48          C49   1.401       .  A
C48         C485   1.408       .  A
C48          H53   1.075       .  S
C49         C488   1.463       .  A
C50          C51   1.467       .  A
C50         C195   1.463       .  A
C50          H54   1.061       .  S
C51          C52   1.405       .  A
C52          H55   1.075       .  S
C56          C57   1.408       .  A
C56         C207   1.410       .  A
C56         C114   1.482       .  S
C57          C58   1.401       .  A
C57          H62   1.075       .  S
C58          C59   1.463       .  A
C58          C75   1.607       .  S
C59         C206   1.467       .  A
C59          H63   1.061       .  S
C60          C61   1.405       .  A
C60         C497   1.467   1_554  A
C60          C75   1.604       .  S
C61         C494   1.410   1_554  A
C61          H64   1.075       .  S
C65          C70   1.408       .  A
C65         C212   1.409       .  A
C65         C126   1.486       .  S
C66          C67   1.406       .  A
C66         C503   1.409   1_554  A
C66          H71   1.075       .  S
C67         C506   1.465   1_554  A
C67          C76   1.601       .  S
C68          C69   1.467       .  A
C68         C213   1.465       .  A
C68          H72   1.066       .  S
C69          C70   1.403       .  A
C69          C76   1.607       .  S
C70          H73   1.075       .  S
C74          C86   1.434       .  S
C74          C95   1.432       .  S
C74          C75   1.381       .  D
C76          C77   1.379       .  D
C77          C92   1.433       .  S
C77          C83   1.433       .  S
O78          C86   1.266       .  A
O78        Cr534   1.937   1_554  S
O79          C80   1.250       .  A
O79        Cr534   1.956   1_554  S
C80         C100   1.431       .  S
C80          O81   1.265       .  A
O81        Cr535   1.929   1_554  S
O82          C83   1.248       .  A
O82        Cr535   1.953   1_554  S
C83          O84   1.263       .  A
O84        Cr536   1.927   1_554  S
O85          C86   1.247       .  A
O85        Cr536   1.929   1_554  S
O87          C95   1.249       .  A
O87         Cr96   1.958       .  S
O88          C89   1.265       .  A
O88         Cr96   1.928       .  S
C89         C100   1.429       .  S
C89          O90   1.249       .  A
O90         Cr97   1.938       .  S
O91          C92   1.265       .  A
O91         Cr97   1.930       .  S
C92          O93   1.248       .  A
O93         Cr98   1.938       .  S
O94          C95   1.263       .  A
O94         Cr98   1.929       .  S
Cr96        O224   1.937       .  S
Cr96        O225   1.956       .  S
Cr96         O99   1.815       .  S
Cr97        O227   1.929       .  S
Cr97        O228   1.953       .  S
Cr97         O99   1.806       .  S
Cr98        O230   1.927       .  S
Cr98        O231   1.929       .  S
Cr98         O99   1.795       .  S
C100        C101   1.374       .  D
C101        C106   1.600       .  S
C101        C104   1.605       .  S
C102        C107   1.407       .  A
C102        C249   1.406       .  A
C102        C135   1.479       .  S
C103        C104   1.401       .  A
C103        C540   1.406       .  A
C103        H108   1.075       .  S
C104        C543   1.467       .  A
C105        C106   1.470       .  A
C105        C250   1.467       .  A
C105        H109   1.069       .  S
C106        C107   1.403       .  A
C107        H110   1.076       .  S
C111        C116   1.407       .  A
C111        C258   1.406   1_455  A
C112        C113   1.399       .  A
C112        C549   1.406   1_655  A
C112        H117   1.084       .  S
C113        C552   1.407   1_554  A
C113        O118   1.371       .  S
C114        C115   1.406       .  A
C114        C259   1.407       .  A
C115        C116   1.399   1_655  A
C115        H119   1.084       .  S
C116        O120   1.371       .  S
O118        H122   0.992   1_554  S
O120        H121   0.992       .  S
C123        C128   1.408       .  A
C123        C270   1.406       .  A
C124        C125   1.400       .  A
C124        C561   1.406       .  A
C124        H129   1.084       .  S
C125        C564   1.408   1_554  A
C125        O130   1.371       .  S
C126        C127   1.406       .  A
C126        C271   1.408       .  A
C127        C128   1.400       .  A
C127        H131   1.084       .  S
C128        O132   1.371       .  S
O130        H134   0.992   1_554  S
O132        H133   0.992       .  S
C135        C140   1.408       .  A
C135        C282   1.404       .  A
C136        C137   1.398   1_545  A
C136        C573   1.404       .  A
C136        H141   1.084       .  S
C137        C576   1.408   1_554  A
C137        O142   1.371       .  S
C138        C139   1.404   1_565  A
C138        C283   1.408       .  A
C139        C140   1.398       .  A
C139        H143   1.084   1_545  S
C140        O144   1.371       .  S
O142        H146   0.992   1_554  S
O144        H145   0.992       .  S
C147        C294   1.407       .  A
C147        C152   1.406       .  A
C147        C284   1.479       .  S
C148        C149   1.403       .  A
C148        H153   1.076       .  S
C149        C150   1.470       .  A
C149        C165   1.600       .  S
C150        H154   1.069       .  S
C151        C296   1.467       .  A
C151        C152   1.401       .  A
C151        C165   1.605       .  S
C152        H155   1.075       .  S
C156        C303   1.408       .  A
C156        C161   1.409       .  A
C156        C269   1.486       .  S
C157        C158   1.403       .  A
C157        H162   1.075       .  S
C158        C189   1.607       .  S
C159        C304   1.467       .  A
C159        C160   1.465       .  A
C159        H163   1.066       .  S
C160        C161   1.406       .  A
C160        C189   1.601       .  S
C161        H164   1.075       .  S
C165        C166   1.374       .  D
C166        C178   1.431       .  S
C166        C169   1.429       .  S
O167        C175   1.249       .  A
O168        C169   1.265       .  A
C169        O170   1.249       .  A
O171        C172   1.265       .  A
C172        C190   1.433       .  S
C172        O173   1.248       .  A
O174        C175   1.264       .  A
C175        C191   1.433       .  S
O176        C184   1.266       .  A
O176       Cr185   1.937       .  S
O177        C178   1.250       .  A
O177       Cr185   1.956       .  S
C178        O179   1.265       .  A
O179       Cr186   1.929       .  S
O180        C181   1.248       .  A
O180       Cr186   1.953       .  S
C181        C190   1.433       .  S
C181        O182   1.263       .  A
O182       Cr187   1.927       .  S
O183        C184   1.247       .  A
O183       Cr187   1.929       .  S
C184        C191   1.434       .  S
Cr185       O313   1.958       .  S
Cr185       O314   1.928       .  S
Cr185       O188   1.815       .  S
Cr186       O316   1.938       .  S
Cr186       O317   1.930       .  S
Cr186       O188   1.806       .  S
Cr187       O319   1.938       .  S
Cr187       O320   1.929       .  S
Cr187       O188   1.795       .  S
C189        C190   1.379       .  D
C191        C192   1.381       .  D
C192        C197   1.604       .  S
C192        C195   1.607       .  S
C193        C340   1.408       .  A
C193        C198   1.410       .  A
C193        C257   1.482       .  S
C194        C195   1.401       .  A
C194        H199   1.075       .  S
C196        C341   1.463       .  A
C196        C197   1.467       .  A
C196        H200   1.061       .  S
C197        C198   1.405       .  A
C198        H201   1.075       .  S
C202        C203   1.408       .  A
C202        C353   1.410       .  A
C202        C260   1.482       .  S
C203        C204   1.401       .  A
C203        H208   1.075       .  S
C204        C205   1.463       .  A
C204        C221   1.607       .  S
C205        C352   1.467       .  A
C205        H209   1.061       .  S
C206        C207   1.405       .  A
C206        C221   1.604       .  S
C207        H210   1.075       .  S
C211        C358   1.409       .  A
C211        C216   1.408       .  A
C211        C272   1.486       .  S
C212        C213   1.406       .  A
C212        H217   1.075       .  S
C213        C222   1.601       .  S
C214        C359   1.465       .  A
C214        C215   1.467       .  A
C214        H218   1.066       .  S
C215        C216   1.403       .  A
C215        C222   1.607       .  S
C216        H219   1.075       .  S
C220        C232   1.434       .  S
C220        C241   1.432       .  S
C220        C221   1.381       .  D
C222        C223   1.379       .  D
C223        C238   1.433       .  S
C223        C229   1.433       .  S
O224        C232   1.266       .  A
O225        C226   1.250       .  A
C226        C246   1.431       .  S
C226        O227   1.265       .  A
O228        C229   1.248       .  A
C229        O230   1.263       .  A
O231        C232   1.247       .  A
O233        C241   1.249       .  A
O233       Cr242   1.958       .  S
O234        C235   1.265       .  A
O234       Cr242   1.928       .  S
C235        C246   1.429       .  S
C235        O236   1.249       .  A
O236       Cr243   1.938       .  S
O237        C238   1.265       .  A
O237       Cr243   1.930       .  S
C238        O239   1.248       .  A
O239       Cr244   1.938       .  S
O240        C241   1.263       .  A
O240       Cr244   1.929       .  S
Cr242       O370   1.937       .  S
Cr242       O371   1.956       .  S
Cr242       O245   1.815       .  S
Cr243       O373   1.929       .  S
Cr243       O374   1.953       .  S
Cr243       O245   1.806       .  S
Cr244       O376   1.927       .  S
Cr244       O377   1.929       .  S
Cr244       O245   1.795       .  S
C246        C247   1.374       .  D
C247        C252   1.600       .  S
C247        C250   1.605       .  S
C248        C395   1.406       .  A
C248        C253   1.407       .  A
C248        C281   1.479       .  S
C249        C250   1.401       .  A
C249        H254   1.075       .  S
C251        C396   1.467       .  A
C251        C252   1.470       .  A
C251        H255   1.069       .  S
C252        C253   1.403       .  A
C253        H256   1.076       .  S
C257        C404   1.406   1_455  A
C257        C262   1.407       .  A
C258        C259   1.399       .  A
C258        H263   1.084       .  S
C259        O264   1.371       .  S
C260        C405   1.407       .  A
C260        C261   1.406       .  A
C261        C262   1.399   1_655  A
C261        H265   1.084       .  S
C262        O266   1.371       .  S
O264        H268   0.992       .  S
O266        H267   0.992       .  S
C269        C416   1.406       .  A
C269        C274   1.408       .  A
C270        C271   1.400       .  A
C270        H275   1.084       .  S
C271        O276   1.371       .  S
C272        C417   1.408       .  A
C272        C273   1.406       .  A
C273        C274   1.400       .  A
C273        H277   1.084       .  S
C274        O278   1.371       .  S
O276        H280   0.992       .  S
O278        H279   0.992       .  S
C281        C428   1.404       .  A
C281        C286   1.408       .  A
C282        C283   1.398   1_545  A
C282        H287   1.084       .  S
C283        O288   1.371       .  S
C284        C429   1.408       .  A
C284        C285   1.404   1_565  A
C285        C286   1.398       .  A
C285        H289   1.084   1_545  S
C286        O290   1.371       .  S
O288        H292   0.992       .  S
O290        H291   0.992       .  S
C293        C440   1.407       .  A
C293        C298   1.406       .  A
C293        C430   1.479       .  S
C294        C295   1.403       .  A
C294        H299   1.076       .  S
C295        C296   1.470       .  A
C295        C311   1.600       .  S
C296        H300   1.069       .  S
C297        C442   1.467       .  A
C297        C298   1.401       .  A
C297        C311   1.605       .  S
C298        H301   1.075       .  S
C302        C449   1.408       .  A
C302        C307   1.409       .  A
C302        C415   1.486       .  S
C303        C304   1.403       .  A
C303        H308   1.075       .  S
C304        C335   1.607       .  S
C305        C450   1.467       .  A
C305        C306   1.465       .  A
C305        H309   1.066       .  S
C306        C307   1.406       .  A
C306        C335   1.601       .  S
C307        H310   1.075       .  S
C311        C312   1.374       .  D
C312        C324   1.431       .  S
C312        C315   1.429       .  S
O313        C321   1.249       .  A
O314        C315   1.265       .  A
C315        O316   1.249       .  A
O317        C318   1.265       .  A
C318        C336   1.433       .  S
C318        O319   1.248       .  A
O320        C321   1.264       .  A
C321        C337   1.433       .  S
O322        C330   1.266       .  A
O322       Cr331   1.937       .  S
O323        C324   1.250       .  A
O323       Cr331   1.956       .  S
C324        O325   1.265       .  A
O325       Cr332   1.929       .  S
O326        C327   1.248       .  A
O326       Cr332   1.953       .  S
C327        C336   1.433       .  S
C327        O328   1.263       .  A
O328       Cr333   1.927       .  S
O329        C330   1.247       .  A
O329       Cr333   1.929       .  S
C330        C337   1.434       .  S
Cr331       O459   1.958       .  S
Cr331       O460   1.928       .  S
Cr331       O334   1.815       .  S
Cr332       O462   1.938       .  S
Cr332       O463   1.930       .  S
Cr332       O334   1.806       .  S
Cr333       O465   1.938       .  S
Cr333       O466   1.929       .  S
Cr333       O334   1.795       .  S
C335        C336   1.379       .  D
C337        C338   1.381       .  D
C338        C343   1.604       .  S
C338        C341   1.607       .  S
C339        C486   1.408       .  A
C339        C344   1.410       .  A
C339        C403   1.482       .  S
C340        C341   1.401       .  A
C340        H345   1.075       .  S
C342        C487   1.463       .  A
C342        C343   1.467       .  A
C342        H346   1.061       .  S
C343        C344   1.405       .  A
C344        H347   1.075       .  S
C348        C349   1.408       .  A
C348        C499   1.410       .  A
C348        C406   1.482       .  S
C349        C350   1.401       .  A
C349        H354   1.075       .  S
C350        C351   1.463       .  A
C350        C367   1.607       .  S
C351        C498   1.467       .  A
C351        H355   1.061       .  S
C352        C353   1.405       .  A
C352        C367   1.604       .  S
C353        H356   1.075       .  S
C357        C504   1.409       .  A
C357        C362   1.408       .  A
C357        C418   1.486       .  S
C358        C359   1.406       .  A
C358        H363   1.075       .  S
C359        C368   1.601       .  S
C360        C505   1.465       .  A
C360        C361   1.467       .  A
C360        H364   1.066       .  S
C361        C362   1.403       .  A
C361        C368   1.607       .  S
C362        H365   1.075       .  S
C366        C378   1.434       .  S
C366        C387   1.432       .  S
C366        C367   1.381       .  D
C368        C369   1.379       .  D
C369        C384   1.433       .  S
C369        C375   1.433       .  S
O370        C378   1.266       .  A
O371        C372   1.250       .  A
C372        C392   1.431       .  S
C372        O373   1.265       .  A
O374        C375   1.248       .  A
C375        O376   1.263       .  A
O377        C378   1.247       .  A
O379        C387   1.249       .  A
O379       Cr388   1.958       .  S
O380        C381   1.265       .  A
O380       Cr388   1.928       .  S
C381        C392   1.429       .  S
C381        O382   1.249       .  A
O382       Cr389   1.938       .  S
O383        C384   1.265       .  A
O383       Cr389   1.930       .  S
C384        O385   1.248       .  A
O385       Cr390   1.938       .  S
O386        C387   1.263       .  A
O386       Cr390   1.929       .  S
Cr388       O516   1.937       .  S
Cr388       O517   1.956       .  S
Cr388       O391   1.815       .  S
Cr389       O519   1.929       .  S
Cr389       O520   1.953       .  S
Cr389       O391   1.806       .  S
Cr390       O522   1.927       .  S
Cr390       O523   1.929       .  S
Cr390       O391   1.795       .  S
C392        C393   1.374       .  D
C393        C398   1.600       .  S
C393        C396   1.605       .  S
C394        C541   1.406       .  A
C394        C399   1.407       .  A
C394        C427   1.479       .  S
C395        C396   1.401       .  A
C395        H400   1.075       .  S
C397        C542   1.467       .  A
C397        C398   1.470       .  A
C397        H401   1.069       .  S
C398        C399   1.403       .  A
C399        H402   1.076       .  S
C403        C550   1.406   1_455  A
C403        C408   1.407       .  A
C404        C405   1.399       .  A
C404        H409   1.084       .  S
C405        O410   1.371       .  S
C406        C551   1.407       .  A
C406        C407   1.406       .  A
C407        C408   1.399   1_655  A
C407        H411   1.084       .  S
C408        O412   1.371       .  S
O410        H414   0.992       .  S
O412        H413   0.992       .  S
C415        C562   1.406       .  A
C415        C420   1.408       .  A
C416        C417   1.400       .  A
C416        H421   1.084       .  S
C417        O422   1.371       .  S
C418        C563   1.408       .  A
C418        C419   1.406       .  A
C419        C420   1.400       .  A
C419        H423   1.084       .  S
C420        O424   1.371       .  S
O422        H426   0.992       .  S
O424        H425   0.992       .  S
C427        C574   1.404       .  A
C427        C432   1.408       .  A
C428        C429   1.398   1_545  A
C428        H433   1.084       .  S
C429        O434   1.371       .  S
C430        C575   1.408       .  A
C430        C431   1.404   1_565  A
C431        C432   1.398       .  A
C431        H435   1.084   1_545  S
C432        O436   1.371       .  S
O434        H438   0.992       .  S
O436        H437   0.992       .  S
C439        C444   1.406       .  A
C439        C576   1.479       .  S
C440        C441   1.403       .  A
C440        H445   1.076       .  S
C441        C442   1.470       .  A
C441        C457   1.600       .  S
C442        H446   1.069       .  S
C443        C444   1.401       .  A
C443        C457   1.605       .  S
C444        H447   1.075       .  S
C448        C453   1.409   1_554  A
C448        C561   1.486       .  S
C449        C450   1.403       .  A
C449        H454   1.075       .  S
C450        C481   1.607       .  S
C451        C452   1.465   1_554  A
C451        H455   1.066       .  S
C452        C453   1.406       .  A
C452        C481   1.601       .  S
C453        H456   1.075       .  S
C457        C458   1.374       .  D
C458        C470   1.431       .  S
C458        C461   1.429       .  S
O459        C467   1.249       .  A
O460        C461   1.265       .  A
C461        O462   1.249       .  A
O463        C464   1.265       .  A
C464        C482   1.433       .  S
C464        O465   1.248       .  A
O466        C467   1.264       .  A
C467        C483   1.433       .  S
O468        C476   1.266       .  A
O468       Cr477   1.937   1_556  S
O469        C470   1.250       .  A
O469       Cr477   1.956   1_556  S
C470        O471   1.265       .  A
O471       Cr478   1.929   1_556  S
O472        C473   1.248       .  A
O472       Cr478   1.953   1_556  S
C473        C482   1.433       .  S
C473        O474   1.263       .  A
O474       Cr479   1.927   1_556  S
O475        C476   1.247       .  A
O475       Cr479   1.929   1_556  S
C476        C483   1.434       .  S
Cr477       O480   1.815       .  S
Cr478       O480   1.806       .  S
Cr479       O480   1.795       .  S
C481        C482   1.379       .  D
C483        C484   1.381       .  D
C484        C489   1.604       .  S
C484        C487   1.607       .  S
C485        C490   1.410   1_554  A
C485        C549   1.482       .  S
C486        C487   1.401       .  A
C486        H491   1.075       .  S
C488        C489   1.467   1_554  A
C488        H492   1.061       .  S
C489        C490   1.405       .  A
C490        H493   1.075       .  S
C494        C495   1.408       .  A
C494        C552   1.482       .  S
C495        C496   1.401       .  A
C495        H500   1.075       .  S
C496        C497   1.463       .  A
C496        C513   1.607       .  S
C497        H501   1.061       .  S
C498        C499   1.405       .  A
C498        C513   1.604       .  S
C499        H502   1.075       .  S
C503        C508   1.408       .  A
C503        C564   1.486       .  S
C504        C505   1.406       .  A
C504        H509   1.075       .  S
C505        C514   1.601       .  S
C506        C507   1.467       .  A
C506        H510   1.066       .  S
C507        C508   1.403       .  A
C507        C514   1.607       .  S
C508        H511   1.075       .  S
C512        C524   1.434       .  S
C512        C533   1.432       .  S
C512        C513   1.381       .  D
C514        C515   1.379       .  D
C515        C530   1.433       .  S
C515        C521   1.433       .  S
O516        C524   1.266       .  A
O517        C518   1.250       .  A
C518        C538   1.431       .  S
C518        O519   1.265       .  A
O520        C521   1.248       .  A
C521        O522   1.263       .  A
O523        C524   1.247       .  A
O525        C533   1.249       .  A
O525       Cr534   1.958       .  S
O526        C527   1.265       .  A
O526       Cr534   1.928       .  S
C527        C538   1.429       .  S
C527        O528   1.249       .  A
O528       Cr535   1.938       .  S
O529        C530   1.265       .  A
O529       Cr535   1.930       .  S
C530        O531   1.248       .  A
O531       Cr536   1.938       .  S
O532        C533   1.263       .  A
O532       Cr536   1.929       .  S
Cr534       O537   1.815       .  S
Cr535       O537   1.806       .  S
Cr536       O537   1.795       .  S
C538        C539   1.374       .  D
C539        C544   1.600       .  S
C539        C542   1.605       .  S
C540        C545   1.407   1_554  A
C540        C573   1.479       .  S
C541        C542   1.401       .  A
C541        H546   1.075       .  S
C543        C544   1.470   1_554  A
C543        H547   1.069       .  S
C544        C545   1.403       .  A
C545        H548   1.076       .  S
C549        C554   1.407   1_554  A
C550        C551   1.399       .  A
C550        H555   1.084       .  S
C551        O556   1.371       .  S
C552        C553   1.406       .  A
C553        C554   1.399   1_655  A
C553        H557   1.084       .  S
C554        O558   1.371       .  S
O556        H560   0.992       .  S
O558        H559   0.992   1_556  S
C561        C566   1.408   1_554  A
C562        C563   1.400       .  A
C562        H567   1.084       .  S
C563        O568   1.371       .  S
C564        C565   1.406       .  A
C565        C566   1.400       .  A
C565        H569   1.084       .  S
C566        O570   1.371       .  S
O568        H572   0.992       .  S
O570        H571   0.992   1_556  S
C573        C578   1.408   1_554  A
C574        C575   1.398   1_545  A
C574        H579   1.084       .  S
C575        O580   1.371       .  S
C576        C577   1.404   1_565  A
C577        C578   1.398       .  A
C577        H581   1.084   1_545  S
C578        O582   1.371       .  S
O580        H584   0.992       .  S
O582        H583   0.992   1_556  S
