geometry optimzed in LAMMPS
_audit_creation_date              2020-12-01 
_audit_creation_method            'lammps2cif' 
_symmetry_space_group_name_H-M    'P1' 
_symmetry_Int_Tables_number       1 
_symmetry_cell_setting            triclinic 
loop_ 
_symmetry_equiv_pos_as_xyz 
  x,y,z 
_cell_length_a                    37.25474685 
_cell_length_b                    37.31622203204922 
_cell_length_c                    66.02971458699656 
_cell_angle_alpha                 90.06517899417145 
_cell_angle_beta                  89.9266785499085 
_cell_angle_gamma                 91.12087309877538 
loop_ 
_atom_site_label 
_atom_site_type_symbol 
_atom_site_fract_x 
_atom_site_fract_y 
_atom_site_fract_z 
_atom_site_charge 
C1          C  0.25131919  0.49454345  0.25176266    -0.02200
N2          N  0.44585108  0.25324745  0.00205039    -0.36300
N3          N  0.00065257  0.25365594  0.97077974    -0.56900
N4          N  0.05768743  0.25488631  0.00063742    -0.36300
N5          N  0.00269242  0.25114311  0.03179739    -0.56900
C6          C  0.42540004  0.24615373  0.98559847     0.27300
C7          C  0.42677054  0.24287468  0.01854334     0.27300
C8          C  0.07639866  0.24560244  0.98398337     0.27300
C9          C  0.07752734  0.24593687  0.01688346     0.27300
C10         C  0.47146744  0.26026513  0.95935294     0.35900
C11         C  0.02946341  0.25928021  0.95866067     0.37500
C12         C  0.47408449  0.25609658  0.04397607     0.35900
C13         C  0.03197519  0.25884658  0.04310816     0.35900
C14         C  0.39242583  0.23202512  0.99167306    -0.21600
C15         C  0.39335916  0.22976737  0.01252405    -0.21600
C16         C  0.10898501  0.23136051  0.98968523    -0.21600
C17         C  0.10974186  0.23168356  0.01055303    -0.21600
C18         C  0.48182824  0.27030620  0.93995504    -0.22700
C19         C  0.01854380  0.26970832  0.93952563    -0.22700
C20         C  0.48522209  0.26742107  0.06300172    -0.22700
C21         C  0.02193992  0.26913945  0.06245567    -0.22700
C22         C  0.43561827  0.25324266  0.96537505    -0.18000
C23         C  0.43839709  0.24667291  0.03882929    -0.18000
C24         C  0.06743172  0.25156286  0.03717300    -0.18000
C25         C  0.06512400  0.25103494  0.96386557    -0.18000
H26         H  0.37011675  0.22403976  0.98208694     0.14900
H27         H  0.37184930  0.21978370  0.02213558     0.14900
H28         H  0.13000783  0.22179560  0.97985076     0.14900
H29         H  0.13141378  0.22239650  0.01997270     0.14900
H30         H  0.46468798  0.27640855  0.92724290     0.13200
H31         H  0.03526227  0.27535699  0.92644870     0.13200
H32         H  0.46865736  0.27289039  0.07608083     0.13200
H33         H  0.03932566  0.27595206  0.07506628     0.13200
H34         H  0.47003844  0.26758459  0.00207071     0.26400
H35         H  0.03422186  0.26951527  0.00093033     0.26400
C36         C  0.24696489  0.99638001  0.75066460    -0.02200
C37         C  0.00079204  0.25184370  0.74974866    -0.02200
N38         N  0.24801519  0.05439615  0.00140485    -0.36300
N39         N  0.26163989  0.49995430  0.03202991    -0.56900
N40         N  0.26041803  0.44413873  0.00113734    -0.36300
N41         N  0.25164679  0.49875322  0.97044739    -0.56900
C42         C  0.25523057  0.07575947  0.01746908     0.27300
C43         C  0.25022290  0.07507909  0.98465094     0.27300
C44         C  0.26831388  0.42398051  0.01743392     0.27300
C45         C  0.26545507  0.42380493  0.98445622     0.27300
C46         C  0.25654391  0.02852043  0.04423276     0.35900
C47         C  0.26090559  0.47083113  0.04419621     0.35900
C48         C  0.24128686  0.02664180  0.95900181     0.35900
C49         C  0.24855778  0.46932230  0.95860098     0.35900
C50         C  0.26074926  0.11074731  0.01095274    -0.21600
C51         C  0.25784664  0.11027255  0.99016732    -0.21600
C52         C  0.27797872  0.39005529  0.01111579    -0.21600
C53         C  0.27635072  0.38999519  0.99024556    -0.21600
C54         C  0.25381821  0.01755374  0.06425175    -0.22700
C55         C  0.25629540  0.48113008  0.06421118    -0.22700
C56         C  0.23171667  0.01491365  0.93979037    -0.22700
C57         C  0.23646816  0.47870517  0.93949542    -0.22700
C58         C  0.25558277  0.06465725  0.03786985    -0.18000
C59         C  0.24471309  0.06305814  0.96460667    -0.18000
C60         C  0.25788029  0.43421500  0.96434930    -0.18000
C61         C  0.26502525  0.43492926  0.03782900    -0.18000
H62         H  0.26650714  0.13413846  0.02018689     0.14900
H63         H  0.26082071  0.13324548  0.98027197     0.14900
H64         H  0.28516977  0.36762510  0.02056115     0.14900
H65         H  0.28185428  0.36742742  0.98048520     0.14900
H66         H  0.25029670  0.03396761  0.07759760     0.13200
H67         H  0.25487284  0.46423412  0.07750915     0.13200
H68         H  0.22304133  0.03095419  0.92712199     0.13200
H69         H  0.23188571  0.46141514  0.92655149     0.13200
H70         H  0.23884689  0.02805616  0.00201404     0.26400
H71         H  0.24822858  0.46872018  0.00159642     0.26400
C72         C  0.35202809  0.25055734  0.89218715     0.42700
N73         N  0.32449658  0.23415857  0.86507007     0.01600
C74         C  0.21683845  0.34435511  0.80762896    -0.06200
H75         H  0.18707130  0.33680551  0.88397633     0.07100
C76         C  0.16020866  0.20882210  0.87957321    -0.06600
Co77       Co  0.29471503  0.29614532  0.84276919     0.74200
N78         N  0.22857839  0.31788251  0.86467322    -0.25800
Co79       Co  0.20164505  0.28930069  0.84228016     0.74100
C80         C  0.14759632  0.23977174  0.89068961     0.42800
N81         N  0.23655039  0.17131913  0.86390688     0.01200
N82         N  0.17581964  0.25791243  0.86424108     0.01400
N83         N  0.27735052  0.34832537  0.80865592    -0.46600
H84         H  0.34231497  0.31021737  0.88560387     0.07100
N85         N  0.26382852  0.32064279  0.86502357     0.01600
N86         N  0.17465787  0.25948487  0.82007950     0.01400
C87         C  0.13421885  0.24386813  0.79846246     0.43000
N88         N  0.27181328  0.17449931  0.86393532    -0.25200
C89         C  0.35056198  0.28227146  0.80810951    -0.06100
N90         N  0.34183662  0.22182085  0.88100902    -0.46300
N91         N  0.14959023  0.27219101  0.80797198    -0.46600
C92         C  0.36910956  0.25058732  0.80054844     0.42800
N93         N  0.26489332  0.32275284  0.82082163     0.01600
N94         N  0.27304722  0.17346529  0.82019349    -0.25200
N95         N  0.32271549  0.26936476  0.86506325    -0.25700
N96         N  0.23763247  0.17065770  0.81981757     0.01300
H97         H  0.31485616  0.14364890  0.80594866     0.07200
H98         H  0.14400202  0.18392642  0.80407890     0.07200
N99         N  0.22946339  0.32007863  0.82064785    -0.25800
N100        N  0.17746908  0.22268135  0.86355085    -0.25400
N101        N  0.32742502  0.23403985  0.82109870     0.01600
C102        C  0.24677038  0.34772871  0.89211813     0.43000
C103        C  0.28487850  0.15736591  0.87993969    -0.06700
N104        N  0.17642255  0.22410740  0.81952453    -0.25400
H105        H  0.15853452  0.18072143  0.88347423     0.07200
N106        N  0.27579310  0.33828066  0.88113680    -0.46600
H107        H  0.31281199  0.15722343  0.88423043     0.07200
C108        C  0.25530985  0.12894960  0.79974332     0.42900
C109        C  0.33953457  0.28222763  0.88154841    -0.06200
Co110      Co  0.29958687  0.20371114  0.84242946     0.73800
N111        N  0.22432499  0.15258886  0.87960568    -0.46300
C112        C  0.24871544  0.36325125  0.79965358     0.43100
N113        N  0.35320582  0.22180717  0.80928976    -0.46300
Co114      Co  0.20650235  0.19663217  0.84148525     0.73900
C115        C  0.15160041  0.21177941  0.80627689    -0.06700
C116        C  0.21530651  0.33451961  0.88091666    -0.06200
N117        N  0.32545315  0.26937200  0.82092315    -0.25800
N118        N  0.15829795  0.26936688  0.88040026    -0.46500
H119        H  0.18879011  0.35034635  0.80560395     0.07100
C120        C  0.28659681  0.14868441  0.80774482    -0.06600
Cl121      Cl  0.25059028  0.24645311  0.84192688    -0.49600
C122        C  0.25346219  0.14267234  0.89029787     0.42900
H123        H  0.35780725  0.31028581  0.80626237     0.07100
N124        N  0.22607645  0.14443774  0.80784864    -0.46300
C125        C  0.25109149  0.36399753  0.20135116     0.42700
N126        N  0.26658706  0.32336091  0.18041048     0.01600
C127        C  0.16181846  0.21022193  0.12149043    -0.06200
H128        H  0.14190590  0.18650650  0.19570467     0.07100
C129        C  0.28125022  0.14909000  0.19726603    -0.06600
Co130      Co  0.20376032  0.29068993  0.15842361     0.74200
N131        N  0.17548705  0.22645107  0.18109912    -0.25800
Co132      Co  0.20602868  0.19764565  0.16032719     0.74100
C133        C  0.24895547  0.12987548  0.20421252     0.42800
N134        N  0.32553462  0.23357900  0.18366908     0.01200
N135        N  0.23411332  0.17081226  0.18304721     0.01400
N136        N  0.16141083  0.27074031  0.12015911    -0.46600
H137        H  0.19101397  0.35378023  0.19495769     0.07100
N138        N  0.17438537  0.26186280  0.18035507     0.01600
N139        N  0.23683407  0.17113319  0.13901941     0.01400
C140        C  0.25368267  0.14392231  0.11210606     0.43000
N141        N  0.32413101  0.26887142  0.18267195    -0.25200
C142        C  0.22210274  0.33608848  0.11987977    -0.06100
N143        N  0.27957951  0.34860462  0.19261400    -0.46300
N144        N  0.22470942  0.15451451  0.12263064    -0.46600
C145        C  0.25514837  0.34910391  0.11007168     0.42800
N146        N  0.17860535  0.25929642  0.13638328     0.01600
N147        N  0.32549269  0.26539547  0.13856956    -0.25200
N148        N  0.23108935  0.32168433  0.18025056    -0.25700
N149        N  0.32682048  0.23015427  0.13938913     0.01300
H150        H  0.34623184  0.30431904  0.11723820     0.07200
H151        H  0.31339449  0.15239642  0.12026938     0.07200
N152        N  0.17938491  0.22405521  0.13739325    -0.25800
N153        N  0.26954972  0.17343405  0.18399294    -0.25400
N154        N  0.26849940  0.31917716  0.13664824     0.01600
C155        C  0.13082734  0.24655672  0.20015052     0.43000
C156        C  0.34680178  0.28310607  0.19632090    -0.06700
N157        N  0.27215682  0.17222339  0.13991595    -0.25400
H158        H  0.30902490  0.14214185  0.19946030     0.07200
N159        N  0.14811653  0.27487484  0.19156452    -0.46600
H160        H  0.35408790  0.31122253  0.19755498     0.07200
C161        C  0.35481563  0.24413947  0.11201806     0.42900
C162        C  0.21879529  0.34650193  0.19314539    -0.06200
Co163      Co  0.29664310  0.29458291  0.15966099     0.73800
N164        N  0.34898306  0.22267007  0.19731179    -0.46300
C165        C  0.14992176  0.24115786  0.11009319     0.43100
N166        N  0.28265106  0.33757034  0.12141964    -0.46300
Co167      Co  0.29910206  0.20183990  0.16197191     0.73900
C168        C  0.28524907  0.15520831  0.12373675    -0.06700
C169        C  0.14915729  0.21438911  0.19336152    -0.06200
N170        N  0.23315825  0.31789037  0.13616046    -0.25800
N171        N  0.22081340  0.14472720  0.19467739    -0.46500
H172        H  0.15910818  0.18204914  0.11806973     0.07100
C173        C  0.34294544  0.27673758  0.12196328    -0.06600
Cl174      Cl  0.25132758  0.24620678  0.16038205    -0.49600
C175        C  0.36285203  0.25249335  0.20621828     0.42900
H176        H  0.19441797  0.33983599  0.11562877     0.07100
N177        N  0.34436806  0.21632095  0.12382374    -0.46300
C178        C  0.50649598  0.38539949  0.70221418     0.42700
N179        N  0.48734539  0.42326386  0.68045419     0.01600
C180        C  0.08669993  0.04063406  0.62077716    -0.06200
H181        H  0.10462292  0.06358770  0.69614611     0.07100
C182        C  0.46268231  0.09561347  0.69560360    -0.06600
Co183      Co  0.04816454  0.45821264  0.65761794     0.74200
N184        N  0.07315909  0.02319792  0.68054134    -0.25800
Co185      Co  0.04174623  0.05066941  0.65956794     0.74100
C186        C  0.49416726  0.11368795  0.70442517     0.42800
N187        N  0.42242055  0.01045921  0.68151111     0.01200
N188        N  0.01131246  0.07533378  0.68218985     0.01400
N189        N  0.08858510  0.48018839  0.61860146    -0.46600
H190        H  0.06539926  0.39884564  0.69459181     0.07100
N191        N  0.07567412  0.48799624  0.67940545     0.01600
N192        N  0.01057317  0.07589636  0.63776071     0.01400
C193        C  0.49367352  0.10182732  0.61041064     0.43000
N194        N  0.42540296  0.47523951  0.68141566    -0.25200
C195        C  0.03302471  0.41064708  0.61997683    -0.06100
N196        N  0.47657235  0.39808067  0.69338530    -0.46300
N197        N  0.02263338  0.09315715  0.62152353    -0.46600
C198        C  0.50105573  0.39543747  0.61026490     0.42800
N199        N  0.07182959  0.49058946  0.63528742     0.01600
N200        N  0.42624117  0.47646412  0.63735076    -0.25200
N201        N  0.02270520  0.42694349  0.67980414    -0.25700
N202        N  0.42370868  0.01160190  0.63747745     0.01300
H203        H  0.41021804  0.43575677  0.61637053     0.07200
H204        H  0.43411253  0.08976294  0.61749102     0.07200
N205        N  0.07011847  0.02576163  0.63671605    -0.25800
N206        N  0.47588316  0.07237306  0.68210183    -0.25400
N207        N  0.48528735  0.42539244  0.63636434     0.01600
C208        C  0.11805814  0.00366134  0.69976750     0.43000
C209        C  0.40057924  0.46111130  0.69400455    -0.06700
N210        N  0.47531542  0.07256189  0.63797196    -0.25400
H211        H  0.43457544  0.10143980  0.69760927     0.07200
N212        N  0.10186839  0.47538764  0.69065978    -0.46600
H213        H  0.39560125  0.43275083  0.69602305     0.07200
C214        C  0.39741075  0.99506037  0.60989265     0.42900
C215        C  0.03709561  0.40415251  0.69306541    -0.06200
Co216      Co  0.45556979  0.44954592  0.65909876     0.73800
N217        N  0.39613724  0.02130131  0.69340806    -0.46300
C218        C  0.09826056  0.01051299  0.60861932     0.43100
N219        N  0.47246703  0.40574846  0.62121196    -0.46300
Co220      Co  0.44880644  0.04224317  0.65992011     0.73900
C221        C  0.46218113  0.08856081  0.62147893    -0.06700
C222        C  0.09869375  0.03559042  0.69325137    -0.06200
N223        N  0.02051017  0.42887599  0.63586392    -0.25800
N224        N  0.02324677  0.09986564  0.69520302    -0.46500
H225        H  0.08915955  0.06901988  0.61774003     0.07100
C226        C  0.41036070  0.46356346  0.62063657    -0.06600
Cl227      Cl  0.49858058  0.00015089  0.65933597    -0.49600
C228        C  0.38064013  0.99178719  0.70178449     0.42900
H229        H  0.06094116  0.40890481  0.61569928     0.07100
N230        N  0.40664456  0.02376251  0.62140487    -0.46300
C231        C  0.11694784  0.99751594  0.29915389     0.42700
N232        N  0.07680956  0.01574746  0.31974038     0.01600
C233        C  0.46241430  0.41929481  0.38298318    -0.06200
H234        H  0.43485273  0.39805948  0.30816120     0.07100
C235        C  0.40633432  0.03289380  0.30249198    -0.06600
Co236      Co  0.04321597  0.45582731  0.34409353     0.74200
N237        N  0.47696770  0.42849742  0.32317287    -0.25800
Co238      Co  0.45066296  0.46188549  0.34360520     0.74100
C239        C  0.38936282  0.99938288  0.29542542     0.42800
N240        N  0.48943484  0.07749145  0.31555674     0.01200
N241        N  0.42511562  0.48820008  0.32002107     0.01400
N242        N  0.02280539  0.41509456  0.38346070    -0.46600
H243        H  0.10516020  0.43839154  0.30728988     0.07100
N244        N  0.01231683  0.42579531  0.32332646     0.01600
N245        N  0.42632953  0.49614512  0.36435897     0.01400
C246        C  0.40135367  0.01799179  0.39079673     0.43000
N247        N  0.02478481  0.07580521  0.31626265    -0.25200
C248        C  0.08856074  0.47642866  0.38205501    -0.06100
N249        N  0.10205069  0.02695045  0.30702991    -0.46300
N250        N  0.41057120  0.48704678  0.38168008    -0.46600
C251        C  0.10206263  0.00979635  0.39111402     0.42800
N252        N  0.01181683  0.43332209  0.36743563     0.01600
N253        N  0.02339409  0.08068368  0.36025307    -0.25200
N254        N  0.07421773  0.48039113  0.32100589    -0.25700
N255        N  0.48818127  0.08304080  0.35985123     0.01300
H256        H  0.06368990  0.09916346  0.38127327     0.07200
H257        H  0.41012736  0.07572480  0.37972427     0.07200
N258        N  0.47665249  0.43616171  0.36695861    -0.25800
N259        N  0.42817132  0.02326245  0.31765396    -0.25400
N260        N  0.07465083  0.02165532  0.36345867     0.01600
C261        C  0.49410368  0.38519363  0.30247937     0.43000
C262        C  0.03870678  0.09858332  0.30245521    -0.06700
N263        N  0.42803549  0.03115501  0.36171881    -0.25400
H264        H  0.40048553  0.06014822  0.29824315     0.07200
N265        N  0.02365294  0.39974803  0.31135707    -0.46600
H266        H  0.06688460  0.10561330  0.30093561     0.07200
C267        C  0.50433305  0.11231161  0.38652176     0.42900
C268        C  0.09844175  0.46641177  0.30825013    -0.06200
Co269      Co  0.05039549  0.04883951  0.33981350     0.73800
N270        N  0.47824146  0.10064477  0.30186104    -0.46300
C271        C  0.49302200  0.40551785  0.39413237     0.43100
N272        N  0.09259295  0.03655944  0.37865190    -0.46300
Co273      Co  0.45787708  0.05428424  0.33843948     0.73900
C274        C  0.41203740  0.04715328  0.37739357    -0.06700
C275        C  0.46311965  0.40393868  0.31036892    -0.06200
N276        N  0.07192233  0.48649153  0.36507021    -0.25800
N277        N  0.40186540  0.47312219  0.30732861    -0.46500
H278        H  0.43399441  0.41669216  0.38606000     0.07100
C279        C  0.03605687  0.09859195  0.37639413    -0.06600
Cl280      Cl  0.50061008  0.00509735  0.34119052    -0.49600
C281        C  0.50771307  0.11497468  0.29276509     0.42900
H282        H  0.09052649  0.44920977  0.38741521     0.07100
N283        N  0.47567660  0.10150158  0.37539803    -0.46300
N284        N  0.98331215  0.19130812  0.49967283    -0.36300
N285        N  0.98163060  0.24802269  0.46978367    -0.56900
N286        N  0.98078600  0.30262355  0.50099576    -0.36300
N287        N  0.98415668  0.24608763  0.53087691    -0.56900
C288        C  0.99264372  0.17286813  0.48290588     0.27300
C289        C  0.99332381  0.17182263  0.51587469     0.27300
C290        C  0.98902990  0.32291433  0.48463038     0.27300
C291        C  0.99003408  0.32188500  0.51761152     0.27300
C292        C  0.97674397  0.21918703  0.45764800     0.35900
C293        C  0.97543809  0.27710808  0.45823598     0.35900
C294        C  0.97895874  0.21654218  0.54236823     0.35900
C295        C  0.97772371  0.27436479  0.54303366     0.35900
C296        C  0.00804955  0.14083519  0.48849143    -0.21600
C297        C  0.00838864  0.14013368  0.50939018    -0.21600
C298        C  0.00280387  0.35587975  0.49091495    -0.21600
C299        C  0.00356815  0.35517167  0.51179107    -0.21600
C300        C  0.96695801  0.22998316  0.43837569    -0.22700
C301        C  0.96623007  0.26664582  0.43872854    -0.22700
C302        C  0.96888059  0.22608709  0.56184091    -0.22700
C303        C  0.96804124  0.26274073  0.56224787    -0.22700
C304        C  0.98622473  0.18391251  0.46281595    -0.18000
C305        C  0.98747999  0.18149444  0.53625237    -0.18000
C306        C  0.98514904  0.31038526  0.53781256    -0.18000
C307        C  0.98268868  0.31282482  0.46430216    -0.18000
H308        H  0.01790099  0.12012235  0.47855996     0.14900
H309        H  0.01855928  0.11879894  0.51873404     0.14900
H310        H  0.01138714  0.37813490  0.48147084     0.14900
H311        H  0.01287455  0.37672784  0.52155602     0.14900
H312        H  0.96237704  0.21327930  0.42518089     0.13200
H313        H  0.96098241  0.28359925  0.42582979     0.13200
H314        H  0.96379314  0.20854886  0.57461330     0.13200
H315        H  0.96217263  0.27902835  0.57537417     0.13200
H316        H  0.96781015  0.21412178  0.50006927     0.26400
H317        H  0.96638790  0.27851854  0.50088834     0.26400
N318        N  0.30681519  0.51325725  0.49977843    -0.36300
N319        N  0.25178886  0.51431261  0.53098114    -0.56900
N320        N  0.19575745  0.51559751  0.50049686    -0.36300
N321        N  0.25083577  0.51865232  0.46941518    -0.56900
C322        C  0.32744452  0.51819697  0.51637839     0.27300
C323        C  0.32686724  0.52266659  0.48349112     0.27300
C324        C  0.17608465  0.52277728  0.51714990     0.27300
C325        C  0.17553882  0.52336513  0.48418761     0.27300
C326        C  0.28045313  0.50611857  0.54246258     0.35900
C327        C  0.22261593  0.50908219  0.54286719     0.35900
C328        C  0.27959440  0.51249963  0.45753010     0.35900
C329        C  0.22160526  0.51186101  0.45785338     0.35900
C330        C  0.36141233  0.53014757  0.51061092    -0.21600
C331        C  0.36095895  0.53328368  0.48980155    -0.21600
C332        C  0.14260355  0.53475074  0.51137202    -0.21600
C333        C  0.14223636  0.53504680  0.49048708    -0.21600
C334        C  0.26939677  0.49617297  0.56176852    -0.22700
C335        C  0.23281638  0.49789401  0.56198435    -0.22700
C336        C  0.26858359  0.50170926  0.43838244    -0.22700
C337        C  0.23184966  0.50136548  0.43857485    -0.22700
C338        C  0.31666243  0.51036926  0.53640561    -0.18000
C339        C  0.31559948  0.51969091  0.46311236    -0.18000
C340        C  0.18586114  0.51792443  0.46387369    -0.18000
C341        C  0.18701275  0.51674916  0.53730359    -0.18000
H342        H  0.38410838  0.53603018  0.52036181     0.14900
H343        H  0.38330399  0.54194006  0.48039875     0.14900
H344        H  0.12060888  0.54207606  0.52116825     0.14900
H345        H  0.11992676  0.54261981  0.48102913     0.14900
H346        H  0.28587576  0.48901360  0.57456253     0.13200
H347        H  0.21572625  0.49203557  0.57487725     0.13200
H348        H  0.28529061  0.49526083  0.42551190     0.13200
H349        H  0.21466262  0.49463590  0.42586835     0.13200
H350        H  0.28184016  0.50038638  0.49947473     0.26400
H351        H  0.21995196  0.50226998  0.50021470     0.26400
C352        C  0.99988559  0.25578704  0.25102438    -0.02200
C353        C  0.99733152  0.28980223  0.26497014     0.00100
C354        C  0.99696681  0.28730494  0.28639209    -0.11700
C355        C  0.99562139  0.31783576  0.29882189     0.02400
C356        C  0.49358288  0.35210195  0.29013422     0.00000
C357        C  0.49091573  0.35511269  0.26915570    -0.11700
C358        C  0.49254899  0.32486309  0.25658530     0.02300
H359        H  0.99685786  0.26155036  0.29379882     0.15200
H360        H  0.48855496  0.38152233  0.26247490     0.15200
C361        C  0.49184116  0.33163505  0.23505008     0.36900
C362        C  0.99532290  0.31323937  0.32052799     0.36800
N363        N  0.49146326  0.33804936  0.21790617    -0.43500
N364        N  0.99483946  0.30942767  0.33791761    -0.43500
C365        C  0.50714138  0.14941477  0.28142299     0.00100
C366        C  0.03277413  0.17648998  0.28540451    -0.11700
C367        C  0.03108147  0.21039595  0.27612990     0.02400
C368        C  0.00241956  0.21872788  0.26262969     0.00000
C369        C  0.47866811  0.18960223  0.25767271    -0.11700
C370        C  0.48036517  0.15606720  0.26706280     0.02300
H371        H  0.05402306  0.17143845  0.29617756     0.15200
H372        H  0.45882087  0.19186677  0.24587078     0.15200
C373        C  0.45505296  0.12824810  0.26095026     0.36900
C374        C  0.05938256  0.23571499  0.28126137     0.36800
N375        N  0.43488048  0.10595190  0.25599282    -0.43500
N376        N  0.08234081  0.25515890  0.28616618    -0.43500
C377        C  0.50203843  0.12717715  0.40732661     0.00100
C378        C  0.47057755  0.12078123  0.41871435    -0.11700
C379        C  0.96611174  0.13645217  0.43783450     0.02400
C380        C  0.99329004  0.15910138  0.44574907     0.00000
C381        C  0.02543611  0.16391490  0.43499031    -0.11700
C382        C  0.03003751  0.14837338  0.41591205     0.02300
H383        H  0.44909413  0.10409052  0.41252407     0.15200
H384        H  0.04610283  0.18184518  0.44099442     0.15200
C385        C  0.06252324  0.15740071  0.40497331     0.36900
C386        C  0.43291635  0.13032470  0.44870708     0.36800
N387        N  0.08863009  0.16499754  0.39634141    -0.43500
N388        N  0.40642062  0.12534830  0.45752391    -0.43500
C389        C  0.49169466  0.38383841  0.41313761     0.00100
C390        C  0.45790034  0.37534354  0.42173319    -0.11700
C391        C  0.45475715  0.35458807  0.43926876     0.02400
C392        C  0.98560349  0.34038084  0.44814418     0.00000
C393        C  0.01943215  0.34917519  0.44006171    -0.11700
C394        C  0.02282306  0.37118912  0.42292724     0.02300
H395        H  0.43351556  0.38474176  0.41484434     0.15200
H396        H  0.04321946  0.33822842  0.44698532     0.15200
C397        C  0.05858624  0.37980232  0.41582004     0.36900
C398        C  0.41954349  0.34742169  0.44770126     0.36800
N399        N  0.08746766  0.38654338  0.41037179    -0.43500
N400        N  0.39141966  0.34177566  0.45458745    -0.43500
C401        C  0.11974896  0.01468864  0.41105038     0.00100
C402        C  0.11746371  0.48670337  0.42526519    -0.11700
C403        C  0.13629504  0.48871550  0.44354675     0.02400
C404        C  0.15840341  0.51881400  0.44766381     0.00000
C405        C  0.15888881  0.04783623  0.43422220    -0.11700
C406        C  0.13951224  0.04625322  0.41610547     0.02300
H407        H  0.10135527  0.46290105  0.42205366     0.15200
H408        H  0.17585125  0.07109040  0.43748994     0.15200
C409        C  0.14191808  0.07681651  0.40274742     0.36900
C410        C  0.13358959  0.45910242  0.45754490     0.36800
N411        N  0.14383599  0.10145761  0.39214644    -0.43500
N412        N  0.13114603  0.43554833  0.46887732    -0.43500
C413        C  0.34234237  0.52373079  0.44647170     0.00100
C414        C  0.36901728  0.49806935  0.44426846    -0.11700
C415        C  0.39017196  0.49716633  0.42675263     0.02400
C416        C  0.38354393  0.02111683  0.41071863     0.00000
C417        C  0.35896425  0.04863956  0.41368547    -0.11700
C418        C  0.33879236  0.05043836  0.43151241     0.02300
H419        H  0.37282550  0.47832002  0.45607390     0.15200
H420        H  0.35459755  0.06811977  0.40181387     0.15200
C421        C  0.31369353  0.07915868  0.43387914     0.36900
C422        C  0.42013836  0.47340925  0.42632362     0.36800
N423        N  0.29356887  0.10214507  0.43582708    -0.43500
N424        N  0.44493367  0.45528766  0.42654788    -0.43500
C425        C  0.16011326  0.51827519  0.55384773     0.00100
C426        C  0.13609674  0.48928608  0.55647417    -0.11700
C427        C  0.11505731  0.48637034  0.57401051     0.02400
C428        C  0.11825353  0.01275528  0.58930498     0.00000
C429        C  0.14101914  0.04266935  0.58608751    -0.11700
C430        C  0.16185685  0.04562229  0.56856874     0.02300
H431        H  0.13468007  0.46833874  0.54508307     0.15200
H432        H  0.14354126  0.06333028  0.59758163     0.15200
C433        C  0.18608759  0.07608505  0.56642456     0.36900
C434        C  0.08986239  0.45664969  0.57553316     0.36800
N435        N  0.20562293  0.10040468  0.56477976    -0.43500
N436        N  0.06954192  0.43284950  0.57631965    -0.43500
C437        C  0.34417461  0.50722084  0.55243952     0.00100
C438        C  0.35258530  0.47285457  0.55910644    -0.11700
C439        C  0.36957822  0.46772975  0.57771536     0.02400
C440        C  0.38075329  0.99784026  0.58946550     0.00000
C441        C  0.37437645  0.03242464  0.58183735    -0.11700
C442        C  0.35538970  0.03722967  0.56381635     0.02300
H443        H  0.34272151  0.44979503  0.55059430     0.15200
H444        H  0.38241734  0.05593262  0.59050028     0.15200
C445        C  0.34458441  0.07280904  0.55822169     0.36900
C446        C  0.37149333  0.43125161  0.58473432     0.36800
N447        N  0.33509524  0.10104668  0.55373381    -0.43500
N448        N  0.37196257  0.40165375  0.58994804    -0.43500
C449        C  0.49467109  0.11786096  0.58979641     0.00100
C450        C  0.46365186  0.11559578  0.57762294    -0.11700
C451        C  0.46200810  0.13366776  0.55908949     0.02400
C452        C  0.99158070  0.15445486  0.55247378     0.00000
C453        C  0.02336746  0.15479297  0.56375054    -0.11700
C454        C  0.02530773  0.13657327  0.58222236     0.02300
H455        H  0.44021402  0.10053224  0.58273311     0.15200
H456        H  0.04607704  0.17102101  0.55861648     0.15200
C457        C  0.05846480  0.13952734  0.59343923     0.36900
C458        C  0.42918673  0.13248087  0.54750925     0.36800
N459        N  0.08521003  0.14209330  0.60226766    -0.43500
N460        N  0.40333076  0.13207839  0.53782723    -0.43500
C461        C  0.49876327  0.37540460  0.59100687     0.00100
C462        C  0.46955039  0.38124098  0.57805328    -0.11700
C463        C  0.46551066  0.36173836  0.56002898     0.02400
C464        C  0.99113213  0.33607813  0.55474262     0.00000
C465        C  0.02084617  0.33101570  0.56737820    -0.11700
C466        C  0.02460761  0.34998888  0.58552438     0.02300
H467        H  0.44961386  0.40076747  0.58214509     0.15200
H468        H  0.04013240  0.31067385  0.56353343     0.15200
C469        C  0.05341399  0.34046177  0.59897258     0.36900
C470        C  0.43418765  0.36731013  0.54766815     0.36800
N471        N  0.07630286  0.33251289  0.60981369    -0.43500
N472        N  0.40907967  0.37177782  0.53775406    -0.43500
C473        C  0.09718403  0.24928716  0.21214613     0.00100
C474        C  0.09441984  0.27769471  0.22575887    -0.11700
C475        C  0.06450423  0.28141192  0.23846461     0.02400
C476        C  0.03445671  0.25666707  0.23713351     0.00000
C477        C  0.03811266  0.22803033  0.22314271    -0.11700
C478        C  0.06830708  0.22453140  0.21062514     0.02300
H479        H  0.11686489  0.29656372  0.22710207     0.15200
H480        H  0.01664941  0.20814547  0.22176701     0.15200
C481        C  0.06785401  0.19632169  0.19564397     0.36900
C482        C  0.06873921  0.30944353  0.25338884     0.36800
N483        N  0.06711020  0.17385469  0.18354315    -0.43500
N484        N  0.07374844  0.33206697  0.26512535    -0.43500
C485        C  0.39758251  0.25371383  0.21683960     0.00100
C486        C  0.39752313  0.25264563  0.23789380    -0.11700
C487        C  0.42960814  0.25408657  0.24886792     0.02400
C488        C  0.46365115  0.25626779  0.23871058     0.00000
C489        C  0.46277882  0.25900037  0.21727510    -0.11700
C490        C  0.43038811  0.25734961  0.20644543     0.02300
H491        H  0.37207201  0.25044687  0.24586351     0.15200
H492        H  0.48708591  0.26324296  0.20862891     0.15200
C493        C  0.43138765  0.25945591  0.18460234     0.36900
C494        C  0.42611753  0.25147264  0.27060776     0.36800
N495        N  0.43201813  0.26106242  0.16710129    -0.43500
N496        N  0.42236040  0.24912434  0.28796126    -0.43500
C497        C  0.25464065  0.09216902  0.05400083     0.00100
C498        C  0.22183619  0.09794093  0.06367488    -0.11700
C499        C  0.22061306  0.11533349  0.08239314     0.02400
C500        C  0.25280861  0.12831596  0.09143823     0.00000
C501        C  0.28528087  0.12508664  0.08071161    -0.11700
C502        C  0.28645817  0.10676968  0.06226176     0.02300
H503        H  0.19744799  0.08619791  0.05733417     0.15200
H504        H  0.31017063  0.13557508  0.08699366     0.15200
C505        C  0.32076886  0.10148165  0.05262854     0.36900
C506        C  0.18625035  0.11655412  0.09244790     0.36800
N507        N  0.34826155  0.09724925  0.04490155    -0.43500
N508        N  0.15853183  0.11682513  0.10036058    -0.43500
C509        C  0.26400601  0.40729063  0.05392097     0.00100
C510        C  0.29460601  0.40255877  0.06579711    -0.11700
C511        C  0.29244428  0.38392197  0.08413926     0.02400
C512        C  0.25912329  0.36870901  0.09059469     0.00000
C513        C  0.22886123  0.37237620  0.07810599    -0.11700
C514        C  0.23103040  0.39174980  0.06001859     0.02300
H515        H  0.31975525  0.41537616  0.06129221     0.15200
H516        H  0.20315979  0.36087609  0.08260218     0.15200
C517        C  0.19867719  0.39761773  0.04856393     0.36900
C518        C  0.32467229  0.38223568  0.09621238     0.36800
N519        N  0.17297678  0.40287061  0.03929515    -0.43500
N520        N  0.35059883  0.38095214  0.10580250    -0.43500
C521        C  0.24807437  0.08899543  0.94773096     0.00100
C522        C  0.27961815  0.08802420  0.93625730    -0.11700
C523        C  0.28186560  0.10475100  0.91744678     0.02400
C524        C  0.25253753  0.12462610  0.91022060     0.00000
C525        C  0.22145737  0.12694432  0.92223384    -0.11700
C526        C  0.21889607  0.10898905  0.94081898     0.02300
H527        H  0.30164702  0.07173946  0.94140267     0.15200
H528        H  0.19881148  0.14212429  0.91690423     0.15200
C529        C  0.18562069  0.10994122  0.95199041     0.36900
C530        C  0.31321592  0.09769580  0.90531130     0.36800
N531        N  0.15881979  0.11078871  0.96084016    -0.43500
N532        N  0.33837130  0.09140883  0.89573583    -0.43500
C533        C  0.25708089  0.40658202  0.94819261     0.00100
C534        C  0.22371315  0.39168223  0.94289294    -0.11700
C535        C  0.21912489  0.37261661  0.92482166     0.02400
C536        C  0.24908369  0.36661410  0.91199931     0.00000
C537        C  0.28304357  0.37985102  0.91817794    -0.11700
C538        C  0.28710433  0.40026017  0.93585273     0.02300
H539        H  0.20053508  0.39733438  0.95226637     0.15200
H540        H  0.30643218  0.37563152  0.90874233     0.15200
C541        C  0.32187097  0.41599099  0.94042550     0.36900
C542        C  0.18278205  0.36221761  0.91978082     0.36800
N543        N  0.34982232  0.42859445  0.94389668    -0.43500
N544        N  0.15301555  0.35522537  0.91630172    -0.43500
C545        C  0.49825935  0.21539690  0.73727944     0.00100
C546        C  0.02219595  0.18696508  0.74148690    -0.11700
C547        C  0.02171097  0.15461827  0.73074550     0.02400
C548        C  0.49507710  0.14770894  0.71620881     0.00000
C549        C  0.46909871  0.17371349  0.71293113    -0.11700
C550        C  0.47018260  0.20689603  0.72316214     0.02300
H551        H  0.04154476  0.18876391  0.75359182     0.15200
H552        H  0.44799816  0.16837708  0.70196873     0.15200
C553        C  0.44156151  0.23094580  0.71843930     0.36900
C554        C  0.04840014  0.12832587  0.73553873     0.36800
N555        N  0.41802610  0.24889219  0.71371392    -0.43500
N556        N  0.06991650  0.10742838  0.73935552    -0.43500
C557        C  0.50540456  0.28673689  0.73670512     0.00100
C558        C  0.50504390  0.28603630  0.71525329    -0.11700
C559        C  0.50518941  0.31773495  0.70377212     0.02400
C560        C  0.50792514  0.35126253  0.71346145     0.00000
C561        C  0.01188697  0.35253351  0.73442696    -0.11700
C562        C  0.01045706  0.32119710  0.74609653     0.02300
H563        H  0.50440144  0.26094361  0.70712687     0.15200
H564        H  0.01450917  0.37841659  0.74185337     0.15200
C565        C  0.01088856  0.32621617  0.76780001     0.36900
C566        C  0.50218278  0.31524197  0.68201782     0.36800
N567        N  0.01097606  0.33119574  0.78510582    -0.43500
N568        N  0.49962880  0.31327489  0.66458509    -0.43500
C569        C  0.03600755  0.25163596  0.76318542     0.00100
C570        C  0.03513904  0.25188949  0.78468503    -0.11700
C571        C  0.06652093  0.24888618  0.79637484     0.02400
C572        C  0.10019558  0.24589095  0.78688260     0.00000
C573        C  0.10196944  0.24748242  0.76581557    -0.11700
C574        C  0.07093394  0.25081102  0.75400779     0.02300
H575        H  0.01026580  0.25530046  0.79277201     0.15200
H576        H  0.12798862  0.24615673  0.75847263     0.15200
C577        C  0.07619696  0.25131379  0.73232678     0.36900
C578        C  0.06346790  0.24913358  0.81817857     0.36800
N579        N  0.08111679  0.25150500  0.71501648    -0.43500
N580        N  0.06087066  0.24936163  0.83564619    -0.43500
C581        C  0.40193637  0.24983534  0.78772050     0.00100
C582        C  0.40694344  0.27716914  0.77362381    -0.11700
C583        C  0.43666302  0.27845669  0.76064827     0.02400
C584        C  0.46487419  0.25273203  0.76249664     0.00000
C585        C  0.45803121  0.22400781  0.77608501    -0.11700
C586        C  0.42760135  0.22255477  0.78868879     0.02300
H587        H  0.38633602  0.29717621  0.77210064     0.15200
H588        H  0.47738683  0.20278915  0.77728809     0.15200
C589        C  0.42439605  0.19342329  0.80298755     0.36900
C590        C  0.43364151  0.30485173  0.74479675     0.36800
N591        N  0.42211445  0.17005178  0.81445554    -0.43500
N592        N  0.42938646  0.32606015  0.73228505    -0.43500
C593        C  0.28109557  0.99794657  0.73643360     0.00100
C594        C  0.28898869  0.46683317  0.72507231    -0.11700
C595        C  0.32076225  0.46368034  0.71381539     0.02400
C596        C  0.34574549  0.99263927  0.71298154     0.00000
C597        C  0.33609661  0.02507320  0.72201721    -0.11700
C598        C  0.30387889  0.02860381  0.73278690     0.02300
H599        H  0.27069996  0.44394762  0.72572047     0.15200
H600        H  0.35356520  0.04846644  0.72019742     0.15200
C601        C  0.29406045  0.06498347  0.73735398     0.36900
C602        C  0.32566780  0.43080640  0.70273096     0.36800
N603        N  0.28670412  0.09446316  0.74052033    -0.43500
N604        N  0.32881094  0.40427953  0.69385671    -0.43500
C605        C  0.15288908  0.00081928  0.71055369     0.00100
C606        C  0.16035800  0.46848495  0.72034857    -0.11700
C607        C  0.19180164  0.46429923  0.73167893     0.02400
C608        C  0.21525990  0.99436449  0.73515443     0.00000
C609        C  0.21056161  0.02423809  0.72226154    -0.11700
C610        C  0.17975141  0.02794407  0.71035628     0.02300
H611        H  0.14167517  0.44595398  0.71889988     0.15200
H612        H  0.22977161  0.04630223  0.72265214     0.15200
C613        C  0.17695749  0.05977326  0.69812734     0.36900
C614        C  0.20033816  0.42798556  0.73711328     0.36800
N615        N  0.17520000  0.08537061  0.68832575    -0.43500
N616        N  0.20679982  0.39857467  0.74102820    -0.43500
C617        C  0.24541184  0.02979527  0.76512077     0.00100
C618        C  0.27589127  0.03647281  0.77749012    -0.11700
C619        C  0.28056297  0.06840389  0.78854677     0.02400
C620        C  0.25332134  0.09422948  0.78857008     0.00000
C621        C  0.22137743  0.08611658  0.77832904    -0.11700
C622        C  0.21660721  0.05455827  0.76710185     0.02300
H623        H  0.29762245  0.01756609  0.77734456     0.15200
H624        H  0.19953125  0.10492065  0.77906739     0.15200
C625        C  0.18072104  0.04913335  0.75933767     0.36900
C626        C  0.31382463  0.07345953  0.79942297     0.36800
N627        N  0.15143911  0.04615222  0.75362210    -0.43500
N628        N  0.34084512  0.07694655  0.80790264    -0.43500
C629        C  0.24995265  0.39834568  0.78881858     0.00100
C630        C  0.21978808  0.42016665  0.78910580    -0.11700
C631        C  0.21886538  0.45248536  0.77822854     0.02400
C632        C  0.24831820  0.46334948  0.76559257     0.00000
C633        C  0.28019763  0.44348317  0.76791740    -0.11700
C634        C  0.28088970  0.41105336  0.77861492     0.02300
H635        H  0.19638259  0.41190166  0.79781502     0.15200
H636        H  0.30523108  0.45278449  0.76131398     0.15200
C637        C  0.31359841  0.39089599  0.77819401     0.36900
C638        C  0.18594659  0.47189516  0.77982434     0.36800
N639        N  0.33980460  0.37475676  0.77775547    -0.43500
N640        N  0.15847125  0.48526877  0.78206780    -0.43500
C641        C  0.09382356  0.24621914  0.05355894     0.00100
C642        C  0.08891655  0.21627215  0.06607778    -0.11700
C643        C  0.10690655  0.21389025  0.08451765     0.02400
C644        C  0.13146873  0.24139681  0.09032267     0.00000
C645        C  0.13770768  0.27052663  0.07720100    -0.11700
C646        C  0.11894027  0.27318024  0.05893350     0.02300
H647        H  0.06889251  0.19597480  0.06206573     0.15200
H648        H  0.15658282  0.29171653  0.08145187     0.15200
C649        C  0.12419995  0.30460928  0.04648602     0.36900
C650        C  0.09649863  0.18491389  0.09788849     0.36800
N651        N  0.12817503  0.32970817  0.03639879    -0.43500
N652        N  0.08754359  0.16177136  0.10852281    -0.43500
C653        C  0.41245547  0.24098965  0.05575981     0.00100
C654        C  0.38445815  0.26505595  0.05821009    -0.11700
C655        C  0.36359711  0.26462885  0.07582645     0.02400
C656        C  0.37178229  0.24101025  0.09181057     0.00000
C657        C  0.39772554  0.21484499  0.08861895    -0.11700
C658        C  0.41776020  0.21439166  0.07063476     0.02300
H659        H  0.37935636  0.28466513  0.04649745     0.15200
H660        H  0.40327868  0.19560220  0.10044971     0.15200
C661        C  0.44440120  0.18718197  0.06795097     0.36900
C662        C  0.33246787  0.28685584  0.07645136     0.36800
N663        N  0.46576234  0.16543221  0.06567401    -0.43500
N664        N  0.30685213  0.30382412  0.07657780    -0.43500
C665        C  0.12914477  0.23987427  0.91044210     0.00100
C666        C  0.13814201  0.26668619  0.92457594    -0.11700
C667        C  0.11912012  0.26964448  0.94278757     0.02400
C668        C  0.09072392  0.24527543  0.94698342     0.00000
C669        C  0.08344437  0.21699605  0.93351297    -0.11700
C670        C  0.10212809  0.21424032  0.91527042     0.02300
H671        H  0.15986544  0.28547562  0.92126315     0.15200
H672        H  0.06163968  0.19818203  0.93679883     0.15200
C673        C  0.09105317  0.18647131  0.90124202     0.36900
C674        C  0.12831492  0.29843163  0.95658110     0.36800
N675        N  0.08205985  0.16422143  0.89001687    -0.43500
N676        N  0.13579614  0.32132694  0.96773169    -0.43500
C677        C  0.37006863  0.24907630  0.91219026     0.00100
C678        C  0.36867072  0.27902024  0.92514161    -0.11700
C679        C  0.38769559  0.27989053  0.94342254     0.02400
C680        C  0.40842313  0.25039219  0.94902797     0.00000
C681        C  0.40830375  0.21974610  0.93675885    -0.11700
C682        C  0.38953128  0.21882946  0.91843702     0.02300
H683        H  0.35333588  0.30218682  0.92085357     0.15200
H684        H  0.42470818  0.19724769  0.94098718     0.15200
C685        C  0.39301471  0.18745678  0.90582273     0.36900
C686        C  0.38702319  0.31191419  0.95570168     0.36800
N687        N  0.39603945  0.16235539  0.89570027    -0.43500
N688        N  0.38640532  0.33758706  0.96553572    -0.43500
C689        C  0.28633255  0.99207897  0.26497246     0.00100
C690        C  0.31923598  0.99413656  0.25399703    -0.11700
C691        C  0.35270844  0.99636825  0.26357660     0.02400
C692        C  0.35463888  0.99621883  0.28474087     0.00000
C693        C  0.32309809  0.49128095  0.29595625    -0.11700
C694        C  0.28929253  0.48845575  0.28655222     0.02300
H695        H  0.31873380  0.99571772  0.23761766     0.15200
H696        H  0.32499080  0.48949490  0.31233000     0.15200
C697        C  0.25988646  0.48041531  0.30009002     0.36900
C698        C  0.38484264  0.99846842  0.25135006     0.36800
N699        N  0.23741374  0.47375140  0.31169945    -0.43500
N700        N  0.41066214  0.99983000  0.24159637    -0.43500
C701        C  0.21441416  0.99546653  0.26323405     0.00100
C702        C  0.20967632  0.02199128  0.27823311    -0.11700
C703        C  0.17874251  0.02283907  0.29035676     0.02400
C704        C  0.15033517  0.99799224  0.28696510     0.00000
C705        C  0.15264360  0.47453348  0.27063222    -0.11700
C706        C  0.18291629  0.47451762  0.25805417     0.02300
H707        H  0.23135832  0.04085433  0.28145331     0.15200
H708        H  0.12963710  0.45742611  0.26698199     0.15200
C709        C  0.17792315  0.45582701  0.23905195     0.36900
C710        C  0.17816131  0.04785084  0.30704884     0.36800
N711        N  0.17299393  0.44090546  0.22389614    -0.43500
N712        N  0.17800063  0.06773337  0.32051129    -0.43500
C713        C  0.24802428  0.09600175  0.21616861     0.00100
C714        C  0.27095865  0.09364972  0.23275569    -0.11700
C715        C  0.27221286  0.06278000  0.24480299     0.02400
C716        C  0.25183476  0.03097691  0.23944964     0.00000
C717        C  0.22715790  0.03482692  0.22328266    -0.11700
C718        C  0.22548810  0.06630111  0.21159469     0.02300
H719        H  0.28725161  0.11698879  0.23685818     0.15200
H720        H  0.20941147  0.01261476  0.21936107     0.15200
C721        C  0.20160161  0.06659672  0.19441080     0.36900
C722        C  0.29248015  0.06739019  0.26329217     0.36800
N723        N  0.18256304  0.06656427  0.18057440    -0.43500
N724        N  0.30891173  0.07244479  0.27792300    -0.43500
C725        C  0.25373741  0.45988177  0.23829881     0.00100
C726        C  0.26207061  0.46159825  0.21734460    -0.11700
C727        C  0.26123135  0.43083165  0.20502865     0.02400
C728        C  0.25326907  0.39708101  0.21354886     0.00000
C729        C  0.24821046  0.39432686  0.23434684    -0.11700
C730        C  0.24903600  0.42470922  0.24678497     0.02300
H731        H  0.26947083  0.48680040  0.21030679     0.15200
H732        H  0.24299556  0.36807710  0.24092513     0.15200
C733        C  0.24134367  0.41803391  0.26786311     0.36900
C734        C  0.26782287  0.43458600  0.18357691     0.36800
N735        N  0.23405691  0.41029330  0.28434414    -0.43500
N736        N  0.27295444  0.43750329  0.16636246    -0.43500
C737        C  0.25132185  0.99454452  0.25176113    -0.02200
N738        N  0.44584793  0.75324851  0.00205281    -0.36300
N739        N  0.00064955  0.75365399  0.97078233    -0.56900
N740        N  0.05768379  0.75488469  0.00064032    -0.36300
N741        N  0.00268852  0.75114548  0.03180011    -0.56900
C742        C  0.42539706  0.74615504  0.98560083     0.27300
C743        C  0.42676759  0.74287421  0.01854553     0.27300
C744        C  0.07639547  0.74559908  0.98398669     0.27300
C745        C  0.07752354  0.74593773  0.01688688     0.27300
C746        C  0.47146477  0.76026421  0.95935528     0.35900
C747        C  0.02946082  0.75927522  0.95866312     0.37500
C748        C  0.47408024  0.75609762  0.04397864     0.35900
C749        C  0.03197082  0.75884895  0.04311119     0.35900
C750        C  0.39242331  0.73202488  0.99167512    -0.21600
C751        C  0.39335680  0.72976574  0.01252601    -0.21600
C752        C  0.10898189  0.73135830  0.98968941    -0.21600
C753        C  0.10973849  0.73168433  0.01055724    -0.21600
C754        C  0.48182621  0.77030233  0.93995704    -0.22700
C755        C  0.01854175  0.76970229  0.93952776    -0.22700
C756        C  0.48521711  0.76742155  0.06300454    -0.22700
C757        C  0.02193494  0.76914051  0.06245884    -0.22700
C758        C  0.43561508  0.75324538  0.96537763    -0.18000
C759        C  0.43839349  0.74667244  0.03883153    -0.18000
C760        C  0.06742738  0.75156575  0.03717618    -0.18000
C761        C  0.06512135  0.75102955  0.96386847    -0.18000
H762        H  0.37011462  0.72403903  0.98208884     0.14900
H763        H  0.37184735  0.71978058  0.02213736     0.14900
H764        H  0.13000511  0.72179257  0.97985548     0.14900
H765        H  0.13141051  0.72239905  0.01997742     0.14900
H766        H  0.46468642  0.77640439  0.92724465     0.13200
H767        H  0.03526040  0.77534913  0.92645067     0.13200
H768        H  0.46865195  0.77288967  0.07608365     0.13200
H769        H  0.03932023  0.77595234  0.07506978     0.13200
H770        H  0.47003471  0.76758666  0.00207327     0.26400
H771        H  0.03421808  0.76951343  0.00093257     0.26400
C772        C  0.24696308  0.49638055  0.75066546    -0.02200
C773        C  0.00078824  0.75184268  0.74974969    -0.02200
N774        N  0.24802104  0.55439728  0.00140474    -0.36300
N775        N  0.26163101  0.99995312  0.03203113    -0.56900
N776        N  0.26041336  0.94413696  0.00113944    -0.36300
N777        N  0.25164632  0.99875138  0.97044851    -0.56900
C778        C  0.25523899  0.57576057  0.01746868     0.27300
C779        C  0.25022442  0.57508065  0.98465093     0.27300
C780        C  0.26830854  0.92397911  0.01743625     0.27300
C781        C  0.26545080  0.92380272  0.98445862     0.27300
C782        C  0.25655204  0.52852118  0.04423179     0.35900
C783        C  0.26090097  0.97083064  0.04419802     0.35900
C784        C  0.24128666  0.52664393  0.95900119     0.35900
C785        C  0.24855490  0.96931971  0.95860288     0.35900
C786        C  0.26075555  0.61074863  0.01095233    -0.21600
C787        C  0.25784811  0.61027427  0.99016711    -0.21600
C788        C  0.27797319  0.89005355  0.01111854    -0.21600
C789        C  0.27634591  0.88999295  0.99024831    -0.21600
C790        C  0.25382142  0.51755359  0.06425038    -0.22700
C791        C  0.25629447  0.98113047  0.06421308    -0.22700
C792        C  0.23171877  0.51491670  0.93978917    -0.22700
C793        C  0.23646411  0.97870177  0.93949741    -0.22700
C794        C  0.25559306  0.56465821  0.03786933    -0.18000
C795        C  0.24471058  0.56305999  0.96460698    -0.18000
C796        C  0.25787686  0.93421245  0.96435161    -0.18000
C797        C  0.26502024  0.93492853  0.03783118    -0.18000
H798        H  0.26651421  0.63413974  0.02018638     0.14900
H799        H  0.26081884  0.63324758  0.98027178     0.14900
H800        H  0.28516382  0.86762357  0.02056418     0.14900
H801        H  0.28184959  0.86742491  0.98048817     0.14900
H802        H  0.25029727  0.53396704  0.07759617     0.13200
H803        H  0.25487611  0.96423529  0.07751148     0.13200
H804        H  0.22304399  0.53095763  0.92712083     0.13200
H805        H  0.23187953  0.96141090  0.92655408     0.13200
H806        H  0.23885282  0.52805753  0.00201414     0.26400
H807        H  0.24822437  0.96871888  0.00159794     0.26400
C808        C  0.35201901  0.75056149  0.89219143     0.42700
N809        N  0.32449087  0.73416206  0.86507316     0.01600
C810        C  0.21683765  0.84435699  0.80762869    -0.06200
H811        H  0.18706687  0.83681226  0.88397639     0.07100
C812        C  0.16020322  0.70882602  0.87957402    -0.06600
Co813      Co  0.29471160  0.79614821  0.84277099     0.74200
N814        N  0.22857409  0.81788709  0.86467380    -0.25800
Co815      Co  0.20164126  0.78930437  0.84228098     0.74100
C816        C  0.14759123  0.73977537  0.89069068     0.42800
N817        N  0.23654497  0.67132222  0.86390815     0.01200
N818        N  0.17581521  0.75791657  0.86424235     0.01400
N819        N  0.27734975  0.84832637  0.80865668    -0.46600
H820        H  0.34230773  0.81022146  0.88560669     0.07100
N821        N  0.26382423  0.82064692  0.86502436     0.01600
N822        N  0.17465383  0.75948790  0.82008055     0.01400
C823        C  0.13421297  0.74386972  0.79846502     0.43000
N824        N  0.27180770  0.67450309  0.86393709    -0.25200
C825        C  0.35056211  0.78227336  0.80811327    -0.06100
N826        N  0.34182871  0.72182479  0.88101304    -0.46300
N827        N  0.14958483  0.77219329  0.80797367    -0.46600
C828        C  0.36911005  0.75058884  0.80055291     0.42800
N829        N  0.26489133  0.82275478  0.82082262     0.01600
N830        N  0.27304326  0.67346788  0.82019519    -0.25200
N831        N  0.32271018  0.76936826  0.86506597    -0.25700
N832        N  0.23762846  0.67066032  0.81981895     0.01300
H833        H  0.31485226  0.64365152  0.80595038     0.07200
H834        H  0.14399718  0.68392848  0.80408174     0.07200
N835        N  0.22946130  0.82008108  0.82064835    -0.25800
N836        N  0.17746425  0.72268539  0.86355191    -0.25400
N837        N  0.32742275  0.73404217  0.82110164     0.01600
C838        C  0.24676606  0.84773379  0.89211849     0.43000
C839        C  0.28487265  0.65736976  0.87994140    -0.06700
N840        N  0.17641876  0.72411042  0.81952580    -0.25400
H841        H  0.15852796  0.68072523  0.88347469     0.07200
N842        N  0.27578874  0.83828515  0.88113742    -0.46600
H843        H  0.31280595  0.65722895  0.88423234     0.07200
C844        C  0.25530604  0.62895199  0.79974453     0.42900
C845        C  0.33952737  0.78223154  0.88155165    -0.06200
Co846      Co  0.29958245  0.70371421  0.84243181     0.73800
N847        N  0.22431938  0.65259076  0.87960643    -0.46300
C848        C  0.24871552  0.86325223  0.79965355     0.43100
N849        N  0.35320476  0.72180901  0.80929369    -0.46300
Co850      Co  0.20649790  0.69663550  0.84148649     0.73900
C851        C  0.15159573  0.71178161  0.80627902    -0.06700
C852        C  0.21530210  0.83452510  0.88091695    -0.06200
N853        N  0.32545146  0.76937434  0.82092595    -0.25800
N854        N  0.15829358  0.76937085  0.88040171    -0.46500
H855        H  0.18878954  0.85034860  0.80560302     0.07100
C856        C  0.28659289  0.64868691  0.80774648    -0.06600
Cl857      Cl  0.25058624  0.74645637  0.84192837    -0.49600
C858        C  0.25345642  0.64267451  0.89029889     0.42900
H859        H  0.35780783  0.81028763  0.80626622     0.07100
N860        N  0.22607263  0.64444037  0.80784981    -0.46300
C861        C  0.25109012  0.86400074  0.20134807     0.42700
N862        N  0.26658424  0.82335854  0.18041074     0.01600
C863        C  0.16181257  0.71021786  0.12149359    -0.06200
H864        H  0.14190134  0.68650295  0.19570667     0.07100
C865        C  0.28124809  0.64908829  0.19726826    -0.06600
Co866      Co  0.20375656  0.79068579  0.15842583     0.74200
N867        N  0.17548430  0.72644690  0.18110165    -0.25800
Co868      Co  0.20602557  0.69764147  0.16032907     0.74100
C869        C  0.24895349  0.62987412  0.20421510     0.42800
N870        N  0.32553116  0.73357637  0.18367054     0.01200
N871        N  0.23411096  0.67080890  0.18304888     0.01400
N872        N  0.16140283  0.77073614  0.12016346    -0.46600
H873        H  0.19101219  0.85378198  0.19495671     0.07100
N874        N  0.17438349  0.76185876  0.18035797     0.01600
N875        N  0.23683135  0.67112956  0.13902045     0.01400
C876        C  0.25368258  0.64392235  0.11210614     0.43000
N877        N  0.32412720  0.76886872  0.18267296    -0.25200
C878        C  0.22209658  0.83608371  0.11988122    -0.06100
N879        N  0.27957756  0.84860533  0.19261193    -0.46300
N880        N  0.22470813  0.65451302  0.12263049    -0.46600
C881        C  0.25514185  0.84909897  0.11007259     0.42800
N882        N  0.17859993  0.75929198  0.13638655     0.01600
N883        N  0.32548889  0.76539105  0.13857076    -0.25200
N884        N  0.23108654  0.82168184  0.18025162    -0.25700
N885        N  0.32681752  0.73015001  0.13939087     0.01300
H886        H  0.34622953  0.80431421  0.11723975     0.07200
H887        H  0.31339338  0.65239546  0.12027168     0.07200
N888        N  0.17938055  0.72405086  0.13739590    -0.25800
N889        N  0.26954725  0.67343118  0.18399466    -0.25400
N890        N  0.26849414  0.81917200  0.13664889     0.01600
C891        C  0.13082529  0.74655347  0.20015342     0.43000
C892        C  0.34679704  0.78310413  0.19632210    -0.06700
N893        N  0.27215408  0.67221966  0.13991777    -0.25400
H894        H  0.30902287  0.64214058  0.19946266     0.07200
N895        N  0.14811516  0.77487121  0.19156757    -0.46600
H896        H  0.35408267  0.81122072  0.19755602     0.07200
C897        C  0.35481551  0.74413465  0.11202072     0.42900
C898        C  0.21879331  0.84650273  0.19314470    -0.06200
Co899      Co  0.29663909  0.79457908  0.15966170     0.73800
N900        N  0.34897920  0.72266822  0.19731368    -0.46300
C901        C  0.14991319  0.74115410  0.11009738     0.43100
N902        N  0.28264500  0.83756516  0.12142011    -0.46300
Co903      Co  0.29909904  0.70183644  0.16197364     0.73900
C904        C  0.28524764  0.65520649  0.12373836    -0.06700
C905        C  0.14915416  0.71438537  0.19336403    -0.06200
N906        N  0.23315293  0.81788549  0.13616174    -0.25800
N907        N  0.22081125  0.64472473  0.19467966    -0.46500
H908        H  0.15910360  0.68204519  0.11807270     0.07100
C909        C  0.34294327  0.77673287  0.12196502    -0.06600
Cl910      Cl  0.25132408  0.74620290  0.16038368    -0.49600
C911        C  0.36284729  0.75249203  0.20622004     0.42900
H912        H  0.19441160  0.83983166  0.11563078     0.07100
N913        N  0.34436719  0.71631639  0.12382633    -0.46300
C914        C  0.50649756  0.88540070  0.70221675     0.42700
N915        N  0.48734727  0.92326252  0.68045506     0.01600
C916        C  0.08669764  0.54063487  0.62077613    -0.06200
H917        H  0.10462315  0.56359148  0.69614464     0.07100
C918        C  0.46267800  0.59561495  0.69560221    -0.06600
Co919      Co  0.04816596  0.95820987  0.65761753     0.74200
N920        N  0.07315732  0.52320142  0.68054120    -0.25800
Co921      Co  0.04174402  0.55067191  0.65956730     0.74100
C922        C  0.49416258  0.61368922  0.70442436     0.42800
N923        N  0.42241708  0.51045986  0.68150930     0.01200
N924        N  0.01130890  0.57533585  0.68218890     0.01400
N925        N  0.08858723  0.98018776  0.61860096    -0.46600
H926        H  0.06540093  0.89884342  0.69459251     0.07100
N927        N  0.07567640  0.98799285  0.67940503     0.01600
N928        N  0.01057098  0.57589815  0.63775969     0.01400
C929        C  0.49367082  0.60182889  0.61040967     0.43000
N930        N  0.42540589  0.97523881  0.68141737    -0.25200
C931        C  0.03302292  0.91064498  0.61997622    -0.06100
N932        N  0.47657403  0.89808189  0.69338771    -0.46300
N933        N  0.02263103  0.59315921  0.62152252    -0.46600
C934        C  0.50105288  0.89543614  0.61026504     0.42800
N935        N  0.07183077  0.99058749  0.63528694     0.01600
N936        N  0.42624156  0.97646387  0.63735265    -0.25200
N937        N  0.02270713  0.92694061  0.67980409    -0.25700
N938        N  0.42370797  0.51160213  0.63747530     0.01300
H939        H  0.41021601  0.93575707  0.61637273     0.07200
H940        H  0.43411002  0.58976431  0.61749005     0.07200
N941        N  0.07011704  0.52576368  0.63671573    -0.25800
N942        N  0.47587948  0.57237474  0.68210049    -0.25400
N943        N  0.48528708  0.92539115  0.63636496     0.01600
C944        C  0.11805721  0.50366498  0.69976707     0.43000
C945        C  0.40058184  0.96111084  0.69400608    -0.06700
N946        N  0.47531315  0.57256320  0.63797082    -0.25400
H947        H  0.43457102  0.60144102  0.69760766     0.07200
N948        N  0.10187032  0.97538406  0.69065957    -0.46600
H949        H  0.39560303  0.93275042  0.69602422     0.07200
C950        C  0.39741339  0.49505985  0.60988957     0.42900
C951        C  0.03709737  0.90415066  0.69306606    -0.06200
Co952      Co  0.45557110  0.94954494  0.65910001     0.73800
N953        N  0.39613369  0.52130167  0.69340636    -0.46300
C954        C  0.09825766  0.51051266  0.60861887     0.43100
N955        N  0.47246524  0.90574758  0.62121282    -0.46300
Co956      Co  0.44880381  0.54224414  0.65991852     0.73900
C957        C  0.46217865  0.58856220  0.62147793    -0.06700
C958        C  0.09869303  0.53559415  0.69325061    -0.06200
N959        N  0.02050988  0.92887397  0.63586373    -0.25800
N960        N  0.02324257  0.59986727  0.69520251    -0.46500
H961        H  0.08915660  0.56902043  0.61773801     0.07100
C962        C  0.41035915  0.96356367  0.62063896    -0.06600
Cl963      Cl  0.49857865  0.50015272  0.65933525    -0.49600
C964        C  0.38063714  0.49178740  0.70178305     0.42900
H965        H  0.06093899  0.90890215  0.61569794     0.07100
N966        N  0.40664566  0.52376226  0.62140196    -0.46300
C967        C  0.11694369  0.49751590  0.29915320     0.42700
N968        N  0.07680515  0.51574764  0.31973924     0.01600
C969        C  0.46241813  0.91929794  0.38298518    -0.06200
H970        H  0.43485554  0.89806258  0.30816169     0.07100
C971        C  0.40633188  0.53289464  0.30249159    -0.06600
Co972      Co  0.04321961  0.95582763  0.34409464     0.74200
N973        N  0.47697092  0.92849837  0.32317421    -0.25800
Co974      Co  0.45066580  0.96188603  0.34360629     0.74100
C975        C  0.38936139  0.49938376  0.29542441     0.42800
N976        N  0.48943087  0.57749247  0.31555628     0.01200
N977        N  0.42511791  0.98819972  0.32002190     0.01400
N978        N  0.02280928  0.91509716  0.38346221    -0.46600
H979        H  0.10516425  0.93839147  0.30729056     0.07100
N980        N  0.01232001  0.92579623  0.32332753     0.01600
N981        N  0.42633140  0.99614582  0.36435948     0.01400
C982        C  0.40135595  0.51799052  0.39079771     0.43000
N983        N  0.02478086  0.57580628  0.31626194    -0.25200
C984        C  0.08856267  0.97642889  0.38205697    -0.06100
N985        N  0.10204658  0.52695054  0.30702898    -0.46300
N986        N  0.41057066  0.98704783  0.38167994    -0.46600
C987        C  0.10206171  0.50979602  0.39111174     0.42800
N988        N  0.01182031  0.93332321  0.36743670     0.01600
N989        N  0.02339107  0.58068374  0.36025239    -0.25200
N990        N  0.07422212  0.98039098  0.32100699    -0.25700
N991        N  0.48817827  0.58304092  0.35985057     0.01300
H992        H  0.06368686  0.59916323  0.38127278     0.07200
H993        H  0.41012799  0.57572370  0.37972532     0.07200
N994        N  0.47665587  0.93616314  0.36695992    -0.25800
N995        N  0.42816846  0.52326294  0.31765362    -0.25400
N996        N  0.07464767  0.52165524  0.36345721     0.01600
C997        C  0.49410627  0.88519714  0.30247913     0.43000
C998        C  0.03870254  0.59858563  0.30245504    -0.06700
N999        N  0.42803355  0.53115440  0.36171860    -0.25400
H1000       H  0.40048284  0.56014916  0.29824305     0.07200
N1001       N  0.02365580  0.89975025  0.31135715    -0.46600
H1002       H  0.06688027  0.60561610  0.30093560     0.07200
C1003       C  0.50432996  0.61231153  0.38652108     0.42900
C1004       C  0.09844604  0.96641174  0.30825103    -0.06200
Co1005     Co  0.05039186  0.54883978  0.33981249     0.73800
N1006       N  0.47823715  0.60064693  0.30186129    -0.46300
C1007       C  0.49302617  0.90552186  0.39413446     0.43100
N1008       N  0.09259118  0.53655922  0.37864994    -0.46300
Co1009     Co  0.45787400  0.55428443  0.33843907     0.73900
C1010       C  0.41203784  0.54715226  0.37739428    -0.06700
C1011       C  0.46312254  0.90394109  0.31036962    -0.06200
N1012       N  0.07192571  0.98649159  0.36507163    -0.25800
N1013       N  0.40186680  0.97312166  0.30732994    -0.46500
H1014       H  0.43399835  0.91669575  0.38606238     0.07100
C1015       C  0.03605388  0.59859183  0.37639354    -0.06600
Cl1016     Cl  0.50060681  0.50509725  0.34118960    -0.49600
C1017       C  0.50770853  0.61497764  0.29276552     0.42900
H1018       H  0.09052791  0.94921010  0.38741745     0.07100
N1019       N  0.47567361  0.60150179  0.37539728    -0.46300
N1020       N  0.98330206  0.69130763  0.49967165    -0.36300
N1021       N  0.98162986  0.74802336  0.46978285    -0.56900
N1022       N  0.98078102  0.80262381  0.50099564    -0.36300
N1023       N  0.98414386  0.74608711  0.53087628    -0.56900
C1024       C  0.99263324  0.67286672  0.48290493     0.27300
C1025       C  0.99331061  0.67182109  0.51587375     0.27300
C1026       C  0.98902907  0.82291457  0.48463089     0.27300
C1027       C  0.99002694  0.82188465  0.51761202     0.27300
C1028       C  0.97674340  0.71918851  0.45764653     0.35900
C1029       C  0.97544118  0.77710964  0.45823514     0.35900
C1030       C  0.97894585  0.71654136  0.54236734     0.35900
C1031       C  0.97771139  0.77436409  0.54303328     0.35900
C1032       C  0.00803467  0.64083183  0.48849084    -0.21600
C1033       C  0.00837224  0.64013034  0.50938954    -0.21600
C1034       C  0.00280331  0.85587927  0.49091637    -0.21600
C1035       C  0.00356358  0.85517087  0.51179250    -0.21600
C1036       C  0.96696186  0.72998618  0.43837375    -0.22700
C1037       C  0.96623611  0.76664891  0.43872704    -0.22700
C1038       C  0.96886758  0.72608592  0.56184007    -0.22700
C1039       C  0.96802849  0.76273961  0.56224735    -0.22700
C1040       C  0.98621919  0.68391266  0.46281477    -0.18000
C1041       C  0.98746784  0.68149376  0.53625143    -0.18000
C1042       C  0.98513885  0.81038449  0.53781276    -0.18000
C1043       C  0.98269152  0.81282580  0.46430229    -0.18000
H1044       H  0.01788481  0.62011797  0.47855962     0.14900
H1045       H  0.01853987  0.61879437  0.51873358     0.14900
H1046       H  0.01138970  0.87813398  0.48147278     0.14900
H1047       H  0.01286938  0.87672645  0.52155804     0.14900
H1048       H  0.96238175  0.71328311  0.42517854     0.13200
H1049       H  0.96099132  0.78360348  0.42582835     0.13200
H1050       H  0.96378018  0.70854735  0.57461233     0.13200
H1051       H  0.96216039  0.77902695  0.57537384     0.13200
H1052       H  0.96780307  0.71412330  0.50006765     0.26400
H1053       H  0.96638201  0.77851947  0.50088713     0.26400
N1054       N  0.30681974  0.01325751  0.49977950    -0.36300
N1055       N  0.25179389  0.01431849  0.53098238    -0.56900
N1056       N  0.19576250  0.01560270  0.50049832    -0.36300
N1057       N  0.25083994  0.01865075  0.46941652    -0.56900
C1058       C  0.32744897  0.01819900  0.51637933     0.27300
C1059       C  0.32687112  0.02266745  0.48349202     0.27300
C1060       C  0.17609056  0.02278636  0.51715114     0.27300
C1061       C  0.17554419  0.02336950  0.48418878     0.27300
C1062       C  0.28045771  0.00612215  0.54246360     0.35900
C1063       C  0.22262084  0.00909007  0.54286861     0.35900
C1064       C  0.27959838  0.01249623  0.45753170     0.35900
C1065       C  0.22160929  0.01185786  0.45785514     0.35900
C1066       C  0.36141605  0.03015143  0.51061166    -0.21600
C1067       C  0.36096226  0.03328692  0.48980223    -0.21600
C1068       C  0.14261048  0.03476186  0.51137286    -0.21600
C1069       C  0.14224294  0.03505500  0.49048788    -0.21600
C1070       C  0.26940097  0.99617708  0.56176958    -0.22700
C1071       C  0.23282077  0.99790098  0.56198568    -0.22700
C1072       C  0.26858739  0.00170269  0.43838463    -0.22700
C1073       C  0.23185339  0.00135890  0.43857716    -0.22700
C1074       C  0.31666710  0.01037140  0.53640657    -0.18000
C1075       C  0.31560317  0.01969018  0.46311337    -0.18000
C1076       C  0.18586564  0.01792441  0.46387508    -0.18000
C1077       C  0.18701808  0.01675868  0.53730498    -0.18000
H1078       H  0.38411175  0.03603594  0.52036247     0.14900
H1079       H  0.38330663  0.04194446  0.48039925     0.14900
H1080       H  0.12061661  0.04209023  0.52116890     0.14900
H1081       H  0.11993382  0.04262840  0.48102969     0.14900
H1082       H  0.28587959  0.98901648  0.57456351     0.13200
H1083       H  0.21573051  0.99204370  0.57487867     0.13200
H1084       H  0.28529437  0.99525269  0.42551433     0.13200
H1085       H  0.21466612  0.99462778  0.42587101     0.13200
H1086       H  0.28184531  0.00038532  0.49947613     0.26400
H1087       H  0.21995563  0.00227271  0.50021667     0.26400
C1088       C  0.99988170  0.75579027  0.25102489    -0.02200
C1089       C  0.99732844  0.78980572  0.26497032     0.00100
C1090       C  0.99696349  0.78730860  0.28639224    -0.11700
C1091       C  0.99561967  0.81783954  0.29882189     0.02400
C1092       C  0.49358427  0.85210570  0.29013406     0.00000
C1093       C  0.49091688  0.85511656  0.26915556    -0.11700
C1094       C  0.49254737  0.82486668  0.25658528     0.02300
H1095       H  0.99685288  0.76155405  0.29379905     0.15200
H1096       H  0.48855745  0.88152633  0.26247474     0.15200
C1097       C  0.49183725  0.83163838  0.23505007     0.36900
C1098       C  0.99531921  0.81324335  0.32052799     0.36800
N1099       N  0.49145669  0.83805298  0.21790622    -0.43500
N1100       N  0.99483402  0.80943191  0.33791761    -0.43500
C1101       C  0.50713652  0.64941817  0.28142381     0.00100
C1102       C  0.03276958  0.67649320  0.28540532    -0.11700
C1103       C  0.03107714  0.71039928  0.27613080     0.02400
C1104       C  0.00241554  0.71873129  0.26263037     0.00000
C1105       C  0.47866389  0.68960578  0.25767337    -0.11700
C1106       C  0.48036015  0.65607102  0.26706376     0.02300
H1107       H  0.05401841  0.67144149  0.29617840     0.15200
H1108       H  0.45881695  0.69187026  0.24587128     0.15200
C1109       C  0.45504662  0.62825282  0.26095173     0.36900
C1110       C  0.05937800  0.73571828  0.28126275     0.36800
N1111       N  0.43487272  0.60595766  0.25599465    -0.43500
N1112       N  0.08233604  0.75516200  0.28616813    -0.43500
C1113       C  0.50203494  0.62717669  0.40732591     0.00100
C1114       C  0.47057405  0.62078012  0.41871352    -0.11700
C1115       C  0.96610749  0.63645134  0.43783350     0.02400
C1116       C  0.99328517  0.65910129  0.44574809     0.00000
C1117       C  0.02543149  0.66391509  0.43498956    -0.11700
C1118       C  0.03003344  0.64837360  0.41591136     0.02300
H1119       H  0.44909110  0.60408883  0.41252320     0.15200
H1120       H  0.04609772  0.68184592  0.44099366     0.15200
C1121       C  0.06251856  0.65740232  0.40497240     0.36900
C1122       C  0.43291190  0.63032342  0.44870578     0.36800
N1123       N  0.08862471  0.66500048  0.39634019    -0.43500
N1124       N  0.40641590  0.62534643  0.45752225    -0.43500
C1125       C  0.49169936  0.88384292  0.41313978     0.00100
C1126       C  0.45790544  0.87535258  0.42173710    -0.11700
C1127       C  0.45476229  0.85459572  0.43927207     0.02400
C1128       C  0.98560790  0.84038287  0.44814511     0.00000
C1129       C  0.01943645  0.84917352  0.44006135    -0.11700
C1130       C  0.02282765  0.87118891  0.42292752     0.02300
H1131       H  0.43352091  0.88475520  0.41484999     0.15200
H1132       H  0.04322327  0.83822291  0.44698348     0.15200
C1133       C  0.05859085  0.87979870  0.41581908     0.36900
C1134       C  0.41954921  0.84743397  0.44770642     0.36800
N1135       N  0.08747237  0.88653700  0.41036996    -0.43500
N1136       N  0.39142583  0.84179191  0.45459414    -0.43500
C1137       C  0.11974686  0.51468835  0.41104838     0.00100
C1138       C  0.11746450  0.98670480  0.42526789    -0.11700
C1139       C  0.13629734  0.98871672  0.44354905     0.02400
C1140       C  0.15840799  0.01881403  0.44766510     0.00000
C1141       C  0.15888242  0.54783744  0.43422176    -0.11700
C1142       C  0.13950688  0.54625433  0.41610468     0.02300
H1143       H  0.10135418  0.96290337  0.42205709     0.15200
H1144       H  0.17584268  0.57109277  0.43749045     0.15200
C1145       C  0.14190980  0.57681940  0.40274782     0.36900
C1146       C  0.13359181  0.95910423  0.45754760     0.36800
N1147       N  0.14382525  0.60146208  0.39214791    -0.43500
N1148       N  0.13114875  0.93555056  0.46888033    -0.43500
C1149       C  0.34234495  0.02373181  0.44647228     0.00100
C1150       C  0.36902236  0.99807300  0.44426899    -0.11700
C1151       C  0.39017557  0.99717073  0.42675260     0.02400
C1152       C  0.38354476  0.52111506  0.41071926     0.00000
C1153       C  0.35896740  0.54863987  0.41368615    -0.11700
C1154       C  0.33879346  0.55043870  0.43151231     0.02300
H1155       H  0.37283388  0.97832524  0.45607488     0.15200
H1156       H  0.35460358  0.56812158  0.40181497     0.15200
C1157       C  0.31369555  0.57916000  0.43387828     0.36900
C1158       C  0.42014570  0.97341825  0.42632375     0.36800
N1159       N  0.29357128  0.60214695  0.43582532    -0.43500
N1160       N  0.44494421  0.95530095  0.42654803    -0.43500
C1161       C  0.16011776  0.01828313  0.55384881     0.00100
C1162       C  0.13610214  0.98929294  0.55647424    -0.11700
C1163       C  0.11506261  0.98637452  0.57401043     0.02400
C1164       C  0.11824959  0.51275260  0.58930421     0.00000
C1165       C  0.14101614  0.54266547  0.58608569    -0.11700
C1166       C  0.16185353  0.54561583  0.56856673     0.02300
H1167       H  0.13468658  0.96834658  0.54508252     0.15200
H1168       H  0.14353922  0.56332746  0.59757915     0.15200
C1169       C  0.18608531  0.57607750  0.56642136     0.36900
C1170       C  0.08986947  0.95665224  0.57553236     0.36800
N1171       N  0.20562169  0.60039604  0.56477542    -0.43500
N1172       N  0.06955055  0.93285071  0.57631861    -0.43500
C1173       C  0.34417901  0.00722257  0.55244056     0.00100
C1174       C  0.35258764  0.97285615  0.55910807    -0.11700
C1175       C  0.36957750  0.96773110  0.57771784     0.02400
C1176       C  0.38075438  0.49783911  0.58946277     0.00000
C1177       C  0.37437549  0.53242334  0.58183506    -0.11700
C1178       C  0.35538582  0.53722809  0.56381504     0.02300
H1179       H  0.34272384  0.94979678  0.55059579     0.15200
H1180       H  0.38241677  0.55593140  0.59049780     0.15200
C1181       C  0.34457817  0.57280728  0.55822150     0.36900
C1182       C  0.37148927  0.93125313  0.58473744     0.36800
N1183       N  0.33508749  0.60104507  0.55373494    -0.43500
N1184       N  0.37195596  0.90165547  0.58995170    -0.43500
C1185       C  0.49466749  0.61786135  0.58979522     0.00100
C1186       C  0.46364944  0.61559022  0.57762103    -0.11700
C1187       C  0.46200373  0.63366132  0.55908742     0.02400
C1188       C  0.99157238  0.65445518  0.55247298     0.00000
C1189       C  0.02335879  0.65479864  0.56375019    -0.11700
C1190       C  0.02530176  0.63657808  0.58222162     0.02300
H1191       H  0.44021424  0.60052177  0.58273052     0.15200
H1192       H  0.04606592  0.67103055  0.55861651     0.15200
C1193       C  0.05845902  0.63953429  0.59343820     0.36900
C1194       C  0.42918497  0.63246415  0.54750498     0.36800
N1195       N  0.08520453  0.64210117  0.60226630    -0.43500
N1196       N  0.40333132  0.63205242  0.53782097    -0.43500
C1197       C  0.49875845  0.87540315  0.59100715     0.00100
C1198       C  0.46954609  0.88124197  0.57805355    -0.11700
C1199       C  0.46550457  0.86173933  0.56002935     0.02400
C1200       C  0.99112342  0.83607631  0.55474321     0.00000
C1201       C  0.02083691  0.83101135  0.56737885    -0.11700
C1202       C  0.02460031  0.84998486  0.58552481     0.02300
H1203       H  0.44961152  0.90077056  0.58214522     0.15200
H1204       H  0.04012124  0.81066760  0.56353425     0.15200
C1205       C  0.05340560  0.84045532  0.59897318     0.36900
C1206       C  0.43418271  0.86731454  0.54766814     0.36800
N1207       N  0.07629345  0.83250435  0.60981446    -0.43500
N1208       N  0.40907568  0.87178521  0.53775375    -0.43500
C1209       C  0.09718147  0.74928531  0.21214838     0.00100
C1210       C  0.09441837  0.77769258  0.22576136    -0.11700
C1211       C  0.06450169  0.78141226  0.23846597     0.02400
C1212       C  0.03445265  0.75666941  0.23713400     0.00000
C1213       C  0.03810741  0.72803299  0.22314286    -0.11700
C1214       C  0.06830244  0.72453234  0.21062595     0.02300
H1215       H  0.11686483  0.79655970  0.22710544     0.15200
H1216       H  0.01664289  0.70814964  0.22176647     0.15200
C1217       C  0.06784776  0.69632430  0.19564380     0.36900
C1218       C  0.06873711  0.80944401  0.25339009     0.36800
N1219       N  0.06710222  0.67385885  0.18354209    -0.43500
N1220       N  0.07374691  0.83206727  0.26512664    -0.43500
C1221       C  0.39757790  0.75371379  0.21684109     0.00100
C1222       C  0.39751899  0.75264667  0.23789530    -0.11700
C1223       C  0.42960423  0.75408936  0.24886915     0.02400
C1224       C  0.46364692  0.75627118  0.23871146     0.00000
C1225       C  0.46277399  0.75900346  0.21727602    -0.11700
C1226       C  0.43038311  0.75735063  0.20644662     0.02300
H1227       H  0.37206812  0.75044720  0.24586522     0.15200
H1228       H  0.48708077  0.76324682  0.20862965     0.15200
C1229       C  0.43138213  0.75945515  0.18460348     0.36900
C1230       C  0.42611435  0.75147548  0.27060902     0.36800
N1231       N  0.43201225  0.76106003  0.16710238    -0.43500
N1232       N  0.42235800  0.74912683  0.28796257    -0.43500
C1233       C  0.25465062  0.59216978  0.05400042     0.00100
C1234       C  0.22184413  0.59794748  0.06367090    -0.11700
C1235       C  0.22061762  0.61534071  0.08238891     0.02400
C1236       C  0.25281207  0.62831752  0.09143765     0.00000
C1237       C  0.28528724  0.62508276  0.08071426    -0.11700
C1238       C  0.28646768  0.60676524  0.06226462     0.02300
H1239       H  0.19745612  0.58620874  0.05732753     0.15200
H1240       H  0.31017676  0.63556684  0.08699876     0.15200
C1241       C  0.32078059  0.60147115  0.05263508     0.36900
C1242       C  0.18625169  0.61656757  0.09243945     0.36800
N1243       N  0.34827516  0.59723376  0.04491122    -0.43500
N1244       N  0.15852991  0.61684232  0.10034824    -0.43500
C1245       C  0.26399959  0.90729007  0.05392326     0.00100
C1246       C  0.29460023  0.90255381  0.06579817    -0.11700
C1247       C  0.29243843  0.88391523  0.08413973     0.02400
C1248       C  0.25911635  0.86870582  0.09059610     0.00000
C1249       C  0.22885320  0.87237812  0.07810875    -0.11700
C1250       C  0.23102294  0.89175243  0.06002158     0.02300
H1251       H  0.31975047  0.91536840  0.06129260     0.15200
H1252       H  0.20315088  0.86088089  0.08260562     0.15200
C1253       C  0.19867004  0.89762313  0.04856715     0.36900
C1254       C  0.32466788  0.88222320  0.09621127     0.36800
N1255       N  0.17297056  0.90287834  0.03929800    -0.43500
N1256       N  0.35059547  0.88093481  0.10580020    -0.43500
C1257       C  0.24806812  0.58899819  0.94773193     0.00100
C1258       C  0.27961674  0.58803856  0.93626231    -0.11700
C1259       C  0.28186425  0.60476381  0.91745145     0.02400
C1260       C  0.25253114  0.62462768  0.91022145     0.00000
C1261       C  0.22144485  0.62693348  0.92223065    -0.11700
C1262       C  0.21888344  0.60897774  0.94081554     0.02300
H1263       H  0.30165003  0.57176266  0.94141075     0.15200
H1264       H  0.19879428  0.64210320  0.91689789     0.15200
C1265       C  0.18560190  0.60991332  0.95198187     0.36900
C1266       C  0.31322049  0.59771603  0.90531945     0.36800
N1267       N  0.15879600  0.61074671  0.96082745    -0.43500
N1268       N  0.33838062  0.59143393  0.89574690    -0.43500
C1269       C  0.25707817  0.90657940  0.94819510     0.00100
C1270       C  0.22371097  0.89167752  0.94289617    -0.11700
C1271       C  0.21912225  0.87261381  0.92482430     0.02400
C1272       C  0.24907996  0.86661641  0.91200036     0.00000
C1273       C  0.28303963  0.87985473  0.91817837    -0.11700
C1274       C  0.28710098  0.90026075  0.93585419     0.02300
H1275       H  0.20053347  0.89732662  0.95227068     0.15200
H1276       H  0.30642758  0.87563833  0.90874174     0.15200
C1277       C  0.32186792  0.91599036  0.94042755     0.36900
C1278       C  0.18277992  0.86221087  0.91978475     0.36800
N1279       N  0.34981982  0.92859196  0.94389937    -0.43500
N1280       N  0.15301374  0.85521527  0.91630679    -0.43500
C1281       C  0.49825560  0.71539677  0.73727973     0.00100
C1282       C  0.02218830  0.68696253  0.74148911    -0.11700
C1283       C  0.02170249  0.65461560  0.73074776     0.02400
C1284       C  0.49507212  0.64770953  0.71620856     0.00000
C1285       C  0.46909738  0.67371680  0.71292873    -0.11700
C1286       C  0.47018184  0.70689903  0.72316004     0.02300
H1287       H  0.04153429  0.68875977  0.75359558     0.15200
H1288       H  0.44799954  0.66838273  0.70196432     0.15200
C1289       C  0.44156533  0.73095239  0.71843431     0.36900
C1290       C  0.04838653  0.62831954  0.73554364     0.36800
N1291       N  0.41803415  0.74890193  0.71370610    -0.43500
N1292       N  0.06989848  0.60741877  0.73936261    -0.43500
C1293       C  0.50540213  0.78673692  0.73670701     0.00100
C1294       C  0.50504883  0.78603723  0.71525516    -0.11700
C1295       C  0.50519709  0.81773622  0.70377427     0.02400
C1296       C  0.50792565  0.85126367  0.71346420     0.00000
C1297       C  0.01187974  0.85253412  0.73443022    -0.11700
C1298       C  0.01045027  0.82119695  0.74609930     0.02300
H1299       H  0.50441133  0.76094475  0.70712846     0.15200
H1300       H  0.01449713  0.87841708  0.74185718     0.15200
C1301       C  0.01087788  0.82621460  0.76780291     0.36900
C1302       C  0.50220182  0.81524369  0.68201947     0.36800
N1303       N  0.01096217  0.83119283  0.78510885    -0.43500
N1304       N  0.49965755  0.81327703  0.66458628    -0.43500
C1305       C  0.03600303  0.75163396  0.76318688     0.00100
C1306       C  0.03513366  0.75188912  0.78468649    -0.11700
C1307       C  0.06651513  0.74888712  0.79637677     0.02400
C1308       C  0.10019006  0.74589131  0.78688495     0.00000
C1309       C  0.10196461  0.74747966  0.76581794    -0.11700
C1310       C  0.07092962  0.75080683  0.75400968     0.02300
H1311       H  0.01026006  0.75530059  0.79277305     0.15200
H1312       H  0.12798403  0.74615276  0.75847536     0.15200
C1313       C  0.07619361  0.75130599  0.73232875     0.36900
C1314       C  0.06346139  0.74913643  0.81818047     0.36800
N1315       N  0.08111475  0.75149382  0.71501856    -0.43500
N1316       N  0.06086359  0.74936594  0.83564807    -0.43500
C1317       C  0.40193534  0.74983562  0.78772368     0.00100
C1318       C  0.40694244  0.77717000  0.77362728    -0.11700
C1319       C  0.43665962  0.77845538  0.76064993     0.02400
C1320       C  0.46487011  0.75273004  0.76249738     0.00000
C1321       C  0.45802703  0.72400520  0.77608530    -0.11700
C1322       C  0.42759807  0.72255258  0.78868980     0.02300
H1323       H  0.38633631  0.79717865  0.77210533     0.15200
H1324       H  0.47738185  0.70278566  0.77728744     0.15200
C1325       C  0.42439087  0.69341796  0.80298641     0.36900
C1326       C  0.43363635  0.80484848  0.74479756     0.36800
N1327       N  0.42210770  0.67004331  0.81445228    -0.43500
N1328       N  0.42938037  0.82605523  0.73228506    -0.43500
C1329       C  0.28109412  0.49794657  0.73643444     0.00100
C1330       C  0.28899033  0.96683335  0.72507152    -0.11700
C1331       C  0.32076406  0.96368069  0.71381492     0.02400
C1332       C  0.34574345  0.49263909  0.71298133     0.00000
C1333       C  0.33609504  0.52507284  0.72201739    -0.11700
C1334       C  0.30387784  0.52860348  0.73278769     0.02300
H1335       H  0.27070173  0.94394773  0.72571955     0.15200
H1336       H  0.35356346  0.54846611  0.72019727     0.15200
C1337       C  0.29405996  0.56498318  0.73735498     0.36900
C1338       C  0.32566952  0.93080700  0.70273027     0.36800
N1339       N  0.28670412  0.59446297  0.74052141    -0.43500
N1340       N  0.32881225  0.90428021  0.69385589    -0.43500
C1341       C  0.15288788  0.50082214  0.71055366     0.00100
C1342       C  0.16036031  0.96848223  0.72034838    -0.11700
C1343       C  0.19180444  0.96429736  0.73167833     0.02400
C1344       C  0.21525820  0.49436555  0.73515502     0.00000
C1345       C  0.21056078  0.52423936  0.72226208    -0.11700
C1346       C  0.17975093  0.52794619  0.71035655     0.02300
H1347       H  0.14167816  0.94595070  0.71889968     0.15200
H1348       H  0.22977131  0.54630300  0.72265275     0.15200
C1349       C  0.17695810  0.55977545  0.69812754     0.36900
C1350       C  0.20034324  0.92798382  0.73711178     0.36800
N1351       N  0.17520150  0.58537285  0.68832593    -0.43500
N1352       N  0.20680729  0.89857314  0.74102584    -0.43500
C1353       C  0.24540958  0.52979629  0.76512162     0.00100
C1354       C  0.27588880  0.53647478  0.77749094    -0.11700
C1355       C  0.28055996  0.56840637  0.78854738     0.02400
C1356       C  0.25331775  0.59423148  0.78857101     0.00000
C1357       C  0.22137386  0.58611750  0.77833004    -0.11700
C1358       C  0.21660441  0.55455881  0.76710276     0.02300
H1359       H  0.29762039  0.51756853  0.77734537     0.15200
H1360       H  0.19952713  0.60492092  0.77906852     0.15200
C1361       C  0.18071837  0.54913252  0.75933863     0.36900
C1362       C  0.31382218  0.57346323  0.79942283     0.36800
N1363       N  0.15143661  0.54614970  0.75362299    -0.43500
N1364       N  0.34084325  0.57695131  0.80790178    -0.43500
C1365       C  0.24995387  0.89834647  0.78881841     0.00100
C1366       C  0.21978937  0.92016747  0.78910513    -0.11700
C1367       C  0.21886701  0.95248575  0.77822762     0.02400
C1368       C  0.24832003  0.96334928  0.76559174     0.00000
C1369       C  0.28019944  0.94348316  0.76791691    -0.11700
C1370       C  0.28089146  0.91105402  0.77861510     0.02300
H1371       H  0.19638364  0.91190293  0.79781426     0.15200
H1372       H  0.30523289  0.95278437  0.76131340     0.15200
C1373       C  0.31360097  0.89089783  0.77819560     0.36900
C1374       C  0.18594852  0.97189609  0.77982335     0.36800
N1375       N  0.33980830  0.87476033  0.77775820    -0.43500
N1376       N  0.15847350  0.98527032  0.78206685    -0.43500
C1377       C  0.09381867  0.74622302  0.05356225     0.00100
C1378       C  0.08892036  0.71626832  0.06607607    -0.11700
C1379       C  0.10690919  0.71388334  0.08451621     0.02400
C1380       C  0.13146180  0.74139512  0.09032634     0.00000
C1381       C  0.13769105  0.77053406  0.07720978    -0.11700
C1382       C  0.11892371  0.77319100  0.05894259     0.02300
H1383       H  0.06890351  0.69596640  0.06206004     0.15200
H1384       H  0.15655744  0.79172906  0.08146478     0.15200
C1385       C  0.12416893  0.80463111  0.04650237     0.36900
C1386       C  0.09650842  0.68489759  0.09788218     0.36800
N1387       N  0.12813174  0.82973972  0.03642153    -0.43500
N1388       N  0.08755847  0.66174734  0.10851246    -0.43500
C1389       C  0.41245199  0.74098690  0.05576175     0.00100
C1390       C  0.38445345  0.76505163  0.05821241    -0.11700
C1391       C  0.36359286  0.76462279  0.07582887     0.02400
C1392       C  0.37178054  0.74100498  0.09181289     0.00000
C1393       C  0.39772462  0.71484065  0.08862075    -0.11700
C1394       C  0.41775808  0.71438825  0.07063610     0.02300
H1395       H  0.37935025  0.78466080  0.04649998     0.15200
H1396       H  0.40327919  0.69559794  0.10045131     0.15200
C1397       C  0.44439878  0.68717863  0.06795084     0.36900
C1398       C  0.33246142  0.78684684  0.07645408     0.36800
N1399       N  0.46575938  0.66542886  0.06567217    -0.43500
N1400       N  0.30684385  0.80381246  0.07658109    -0.43500
C1401       C  0.12913969  0.73987602  0.91044330     0.00100
C1402       C  0.13814170  0.76668182  0.92457986    -0.11700
C1403       C  0.11912109  0.76963701  0.94279221     0.02400
C1404       C  0.09072199  0.74527013  0.94698635     0.00000
C1405       C  0.08343865  0.71699555  0.93351319    -0.11700
C1406       C  0.10211987  0.71424420  0.91526955     0.02300
H1407       H  0.15986795  0.78546885  0.92126868     0.15200
H1408       H  0.06163170  0.69818324  0.93679744     0.15200
C1409       C  0.09103836  0.68648332  0.90123761     0.36900
C1410       C  0.12832013  0.79841922  0.95658817     0.36800
N1411       N  0.08203951  0.66424057  0.89000933    -0.43500
N1412       N  0.13580475  0.82131042  0.96774076    -0.43500
C1413       C  0.37006036  0.74908134  0.91219454     0.00100
C1414       C  0.36867240  0.77903006  0.92514293    -0.11700
C1415       C  0.38769967  0.77990104  0.94342309     0.02400
C1416       C  0.40841887  0.75039826  0.94903103     0.00000
C1417       C  0.40828932  0.71974813  0.93676521    -0.11700
C1418       C  0.38951492  0.71883084  0.91844403     0.02300
H1419       H  0.35334406  0.80219990  0.92085306     0.15200
H1420       H  0.42468735  0.69724618  0.94099553     0.15200
C1421       C  0.39298865  0.68745266  0.90583324     0.36900
C1422       C  0.38703871  0.81192943  0.95569868     0.36800
N1423       N  0.39600641  0.66234669  0.89571369    -0.43500
N1424       N  0.38643041  0.83760621  0.96552980    -0.43500
C1425       C  0.28633002  0.49207821  0.26497369     0.00100
C1426       C  0.31923282  0.49413552  0.25399764    -0.11700
C1427       C  0.35270562  0.49636848  0.26357649     0.02400
C1428       C  0.35463709  0.49621986  0.28474066     0.00000
C1429       C  0.32309910  0.99127927  0.29595571    -0.11700
C1430       C  0.28929406  0.98845455  0.28655094     0.02300
H1431       H  0.31872988  0.49571604  0.23761827     0.15200
H1432       H  0.32499073  0.98949195  0.31232945     0.15200
C1433       C  0.25988737  0.98041117  0.30008780     0.36900
C1434       C  0.38483896  0.49847005  0.25134928     0.36800
N1435       N  0.23741395  0.97374440  0.31169632    -0.43500
N1436       N  0.41065760  0.49983314  0.24159490    -0.43500
C1437       C  0.21441131  0.49546587  0.26323523     0.00100
C1438       C  0.20967322  0.52199036  0.27823440    -0.11700
C1439       C  0.17873928  0.52283771  0.29035791     0.02400
C1440       C  0.15033156  0.49799187  0.28696522     0.00000
C1441       C  0.15264712  0.97453310  0.27063235    -0.11700
C1442       C  0.18291925  0.97451752  0.25805372     0.02300
H1443       H  0.23135528  0.54085307  0.28145507     0.15200
H1444       H  0.12964086  0.95742500  0.26698272     0.15200
C1445       C  0.17792564  0.95582636  0.23905170     0.36900
C1446       C  0.17815876  0.54784680  0.30705130     0.36800
N1447       N  0.17299616  0.94090428  0.22389608    -0.43500
N1448       N  0.17799873  0.56772670  0.32051501    -0.43500
C1449       C  0.24802272  0.59600034  0.21617072     0.00100
C1450       C  0.27095696  0.59364822  0.23275777    -0.11700
C1451       C  0.27221057  0.56277862  0.24480503     0.02400
C1452       C  0.25183274  0.53097555  0.23945123     0.00000
C1453       C  0.22715650  0.53482550  0.22328405    -0.11700
C1454       C  0.22548653  0.56629994  0.21159649     0.02300
H1455       H  0.28724988  0.61698725  0.23686042     0.15200
H1456       H  0.20941031  0.51261336  0.21936218     0.15200
C1457       C  0.20159924  0.56659637  0.19441298     0.36900
C1458       C  0.29247672  0.56738906  0.26329461     0.36800
N1459       N  0.18255968  0.56656474  0.18057702    -0.43500
N1460       N  0.30890732  0.57244401  0.27792575    -0.43500
C1461       C  0.25374017  0.95988323  0.23829694     0.00100
C1462       C  0.26207211  0.96160063  0.21734259    -0.11700
C1463       C  0.26123082  0.93083475  0.20502607     0.02400
C1464       C  0.25326916  0.89708374  0.21354599     0.00000
C1465       C  0.24821302  0.89432848  0.23434404    -0.11700
C1466       C  0.24903940  0.92471017  0.24678262     0.02300
H1467       H  0.26947226  0.98680298  0.21030497     0.15200
H1468       H  0.24299863  0.86807835  0.24092200     0.15200
C1469       C  0.24134735  0.91803310  0.26786056     0.36900
C1470       C  0.26781871  0.93459054  0.18357406     0.36800
N1471       N  0.23406047  0.91028968  0.28434115    -0.43500
N1472       N  0.27294701  0.93750956  0.16635940    -0.43500
C1473       C  0.75131913  0.49454350  0.25176268    -0.02200
N1474       N  0.94585124  0.25324748  0.00205041    -0.36300
N1475       N  0.50065258  0.25365592  0.97077973    -0.56900
N1476       N  0.55768740  0.25488630  0.00063745    -0.36300
N1477       N  0.50269231  0.25114312  0.03179738    -0.56900
C1478       C  0.92540009  0.24615381  0.98559850     0.27300
C1479       C  0.92677065  0.24287472  0.01854337     0.27300
C1480       C  0.57639863  0.24560239  0.98398341     0.27300
C1481       C  0.57752725  0.24593679  0.01688351     0.27300
C1482       C  0.97146742  0.26026508  0.95935294     0.35900
C1483       C  0.52946344  0.25928028  0.95866069     0.37500
C1484       C  0.97408461  0.25609657  0.04397609     0.35900
C1485       C  0.53197507  0.25884658  0.04310817     0.35900
C1486       C  0.89242587  0.23202531  0.99167311    -0.21600
C1487       C  0.89335924  0.22976752  0.01252408    -0.21600
C1488       C  0.60898492  0.23136033  0.98968529    -0.21600
C1489       C  0.60974173  0.23168335  0.01055310    -0.21600
C1490       C  0.98182819  0.27030602  0.93995502    -0.22700
C1491       C  0.51854387  0.26970853  0.93952567    -0.22700
C1492       C  0.98522225  0.26742107  0.06300173    -0.22700
C1493       C  0.52193976  0.26913945  0.06245568    -0.22700
C1494       C  0.93561828  0.25324270  0.96537507    -0.18000
C1495       C  0.93839721  0.24667294  0.03882932    -0.18000
C1496       C  0.56743159  0.25156279  0.03717304    -0.18000
C1497       C  0.56512403  0.25103497  0.96386560    -0.18000
H1498       H  0.87011676  0.22404002  0.98208699     0.14900
H1499       H  0.87184937  0.21978389  0.02213563     0.14900
H1500       H  0.63000772  0.22179537  0.97985082     0.14900
H1501       H  0.63141361  0.22239622  0.01997277     0.14900
H1502       H  0.96468791  0.27640832  0.92724288     0.13200
H1503       H  0.53526234  0.27535728  0.92644875     0.13200
H1504       H  0.96865753  0.27289039  0.07608085     0.13200
H1505       H  0.53932547  0.27595207  0.07506630     0.13200
H1506       H  0.97003854  0.26758455  0.00207074     0.26400
H1507       H  0.53422185  0.26951531  0.00093033     0.26400
C1508       C  0.74696486  0.99638000  0.75066469    -0.02200
C1509       C  0.50079209  0.25184374  0.74974868    -0.02200
N1510       N  0.74801496  0.05439622  0.00140490    -0.36300
N1511       N  0.76163981  0.49995436  0.03202997    -0.56900
N1512       N  0.76041822  0.44413882  0.00113738    -0.36300
N1513       N  0.75164696  0.49875327  0.97044740    -0.56900
C1514       C  0.75523035  0.07575956  0.01746913     0.27300
C1515       C  0.75022277  0.07507914  0.98465098     0.27300
C1516       C  0.76831402  0.42398059  0.01743396     0.27300
C1517       C  0.76545525  0.42380502  0.98445626     0.27300
C1518       C  0.75654359  0.02852053  0.04423282     0.35900
C1519       C  0.76090564  0.47083118  0.04419626     0.35900
C1520       C  0.74128699  0.02664185  0.95900183     0.35900
C1521       C  0.74855802  0.46932235  0.95860099     0.35900
C1522       C  0.76074912  0.11074737  0.01095276    -0.21600
C1523       C  0.75784655  0.11027258  0.99016734    -0.21600
C1524       C  0.77797889  0.39005536  0.01111583    -0.21600
C1525       C  0.77635092  0.38999527  0.99024560    -0.21600
C1526       C  0.75381795  0.01755377  0.06425180    -0.22700
C1527       C  0.75629536  0.48113010  0.06421123    -0.22700
C1528       C  0.73171690  0.01491371  0.93979038    -0.22700
C1529       C  0.73646847  0.47870520  0.93949540    -0.22700
C1530       C  0.75558247  0.06465735  0.03786992    -0.18000
C1531       C  0.74471308  0.06305819  0.96460670    -0.18000
C1532       C  0.75788048  0.43421505  0.96434932    -0.18000
C1533       C  0.76502533  0.43492932  0.03782903    -0.18000
H1534       H  0.76650695  0.13413856  0.02018688     0.14900
H1535       H  0.76082065  0.13324549  0.98027198     0.14900
H1536       H  0.78516989  0.36762517  0.02056121     0.14900
H1537       H  0.78185447  0.36742750  0.98048524     0.14900
H1538       H  0.75029640  0.03396758  0.07759768     0.13200
H1539       H  0.75487276  0.46423413  0.07750920     0.13200
H1540       H  0.72304158  0.03095424  0.92712199     0.13200
H1541       H  0.73188610  0.46141517  0.92655147     0.13200
H1542       H  0.73884665  0.02805624  0.00201408     0.26400
H1543       H  0.74822888  0.46872036  0.00159648     0.26400
C1544       C  0.85202804  0.25055736  0.89218720     0.42700
N1545       N  0.82449655  0.23415864  0.86507011     0.01600
C1546       C  0.71683851  0.34435512  0.80762899    -0.06200
H1547       H  0.68707133  0.33680551  0.88397639     0.07100
C1548       C  0.66020867  0.20882222  0.87957321    -0.06600
Co1549     Co  0.79471507  0.29614538  0.84276923     0.74200
N1550       N  0.72857842  0.31788255  0.86467324    -0.25800
Co1551     Co  0.70164511  0.28930075  0.84228017     0.74100
C1552       C  0.64759632  0.23977183  0.89068960     0.42800
N1553       N  0.73655040  0.17131920  0.86390690     0.01200
N1554       N  0.67581972  0.25791253  0.86424110     0.01400
N1555       N  0.77735060  0.34832546  0.80865599    -0.46600
H1556       H  0.84231495  0.31021743  0.88560389     0.07100
N1557       N  0.76382854  0.32064284  0.86502359     0.01600
N1558       N  0.67465795  0.25948494  0.82007949     0.01400
C1559       C  0.63421896  0.24386819  0.79846244     0.43000
N1560       N  0.77181329  0.17449941  0.86393532    -0.25200
C1561       C  0.85056201  0.28227157  0.80810953    -0.06100
N1562       N  0.84183659  0.22182088  0.88100906    -0.46300
N1563       N  0.64959041  0.27219109  0.80797191    -0.46600
C1564       C  0.86910955  0.25058740  0.80054845     0.42800
N1565       N  0.76489340  0.32275287  0.82082166     0.01600
N1566       N  0.77304723  0.17346540  0.82019348    -0.25200
N1567       N  0.82271546  0.26936481  0.86506330    -0.25700
N1568       N  0.73763249  0.17065775  0.81981759     0.01300
H1569       H  0.81485622  0.14364908  0.80594865     0.07200
H1570       H  0.64400212  0.18392647  0.80407887     0.07200
N1571       N  0.72946348  0.32007862  0.82064786    -0.25800
N1572       N  0.67746911  0.22268145  0.86355085    -0.25400
N1573       N  0.82742507  0.23403998  0.82109877     0.01600
C1574       C  0.74677042  0.34772870  0.89211816     0.43000
C1575       C  0.78487855  0.15736597  0.87993966    -0.06700
N1576       N  0.67642254  0.22410746  0.81952456    -0.25400
H1577       H  0.65853453  0.18072156  0.88347422     0.07200
N1578       N  0.77579313  0.33828068  0.88113682    -0.46600
H1579       H  0.81281207  0.15722351  0.88423036     0.07200
C1580       C  0.75530989  0.12894970  0.79974331     0.42900
C1581       C  0.83953449  0.28222767  0.88154847    -0.06200
Co1582     Co  0.79958687  0.20371125  0.84242949     0.73800
N1583       N  0.72432505  0.15258891  0.87960570    -0.46300
C1584       C  0.74871550  0.36325132  0.79965365     0.43100
N1585       N  0.85320581  0.22180728  0.80928980    -0.46300
Co1586     Co  0.70650235  0.19663223  0.84148528     0.73900
C1587       C  0.65160044  0.21177947  0.80627691    -0.06700
C1588       C  0.71530653  0.33451959  0.88091670    -0.06200
N1589       N  0.82545323  0.26937213  0.82092321    -0.25800
N1590       N  0.65829804  0.26936698  0.88040028    -0.46500
H1591       H  0.68879016  0.35034638  0.80560403     0.07100
C1592       C  0.78659686  0.14868456  0.80774481    -0.06600
Cl1593     Cl  0.75059028  0.24645318  0.84192689    -0.49600
C1594       C  0.75346227  0.14267240  0.89029786     0.42900
H1595       H  0.85780724  0.31028592  0.80626236     0.07100
N1596       N  0.72607648  0.14443778  0.80784866    -0.46300
C1597       C  0.75109155  0.36399753  0.20135122     0.42700
N1598       N  0.76658713  0.32336092  0.18041052     0.01600
C1599       C  0.66181843  0.21022202  0.12149046    -0.06200
H1600       H  0.64190586  0.18650670  0.19570463     0.07100
C1601       C  0.78125025  0.14909015  0.19726612    -0.06600
Co1602     Co  0.70376038  0.29069001  0.15842361     0.74200
N1603       N  0.67548706  0.22645125  0.18109913    -0.25800
Co1604     Co  0.70602869  0.19764575  0.16032721     0.74100
C1605       C  0.74895550  0.12987557  0.20421258     0.42800
N1606       N  0.82553457  0.23357894  0.18366910     0.01200
N1607       N  0.73411334  0.17081230  0.18304723     0.01400
N1608       N  0.66141078  0.27074038  0.12015911    -0.46600
H1609       H  0.69101405  0.35378027  0.19495769     0.07100
N1610       N  0.67438540  0.26186297  0.18035508     0.01600
N1611       N  0.73683400  0.17113324  0.13901944     0.01400
C1612       C  0.75368256  0.14392249  0.11210606     0.43000
N1613       N  0.82413100  0.26887135  0.18267196    -0.25200
C1614       C  0.72210277  0.33608853  0.11987977    -0.06100
N1615       N  0.77957957  0.34860461  0.19261406    -0.46300
N1616       N  0.72470932  0.15451463  0.12263066    -0.46600
C1617       C  0.75514841  0.34910406  0.11007173     0.42800
N1618       N  0.67860540  0.25929652  0.13638325     0.01600
N1619       N  0.82549265  0.26539546  0.13856957    -0.25200
N1620       N  0.73108943  0.32168436  0.18025058    -0.25700
N1621       N  0.82682041  0.23015427  0.13938914     0.01300
H1622       H  0.84623178  0.30431903  0.11723820     0.07200
H1623       H  0.81339440  0.15239645  0.12026940     0.07200
N1624       N  0.67938497  0.22405532  0.13739324    -0.25800
N1625       N  0.76954973  0.17343412  0.18399299    -0.25400
N1626       N  0.76849945  0.31917723  0.13664825     0.01600
C1627       C  0.63082732  0.24655690  0.20015050     0.43000
C1628       C  0.84680174  0.28310599  0.19632092    -0.06700
N1629       N  0.77215675  0.17222341  0.13991599    -0.25400
H1630       H  0.80902495  0.14214208  0.19946044     0.07200
N1631       N  0.64811656  0.27487503  0.19156452    -0.46600
H1632       H  0.85408790  0.31122244  0.19755495     0.07200
C1633       C  0.85481554  0.24413945  0.11201806     0.42900
C1634       C  0.71879537  0.34650195  0.19314541    -0.06200
Co1635     Co  0.79664314  0.29458292  0.15966102     0.73800
N1636       N  0.84898299  0.22266999  0.19731182    -0.46300
C1637       C  0.64992165  0.24115791  0.11009323     0.43100
N1638       N  0.78265110  0.33757049  0.12141969    -0.46300
Co1639     Co  0.79910202  0.20183990  0.16197194     0.73900
C1640       C  0.78524898  0.15520837  0.12373676    -0.06700
C1641       C  0.64915728  0.21438931  0.19336150    -0.06200
N1642       N  0.73315830  0.31789039  0.13616045    -0.25800
N1643       N  0.72081343  0.14472721  0.19467740    -0.46500
H1644       H  0.65910801  0.18204922  0.11806981     0.07100
C1645       C  0.84294536  0.27673757  0.12196328    -0.06600
Cl1646     Cl  0.75132761  0.24620683  0.16038211    -0.49600
C1647       C  0.86285194  0.25249327  0.20621832     0.42900
H1648       H  0.69441802  0.33983603  0.11562874     0.07100
N1649       N  0.84436797  0.21632093  0.12382375    -0.46300
C1650       C  0.00649595  0.38539944  0.70221418     0.42700
N1651       N  0.98734535  0.42326387  0.68045424     0.01600
C1652       C  0.58670005  0.04063410  0.62077718    -0.06200
H1653       H  0.60462294  0.06358771  0.69614610     0.07100
C1654       C  0.96268225  0.09561345  0.69560359    -0.06600
Co1655     Co  0.54816453  0.45821264  0.65761789     0.74200
N1656       N  0.57315909  0.02319795  0.68054135    -0.25800
Co1657     Co  0.54174630  0.05066945  0.65956794     0.74100
C1658       C  0.99416720  0.11368793  0.70442517     0.42800
N1659       N  0.92242048  0.01045913  0.68151118     0.01200
N1660       N  0.51131252  0.07533383  0.68218985     0.01400
N1661       N  0.58858502  0.48018840  0.61860137    -0.46600
H1662       H  0.56539929  0.39884563  0.69459181     0.07100
N1663       N  0.57567413  0.48799624  0.67940541     0.01600
N1664       N  0.51057329  0.07589643  0.63776073     0.01400
C1665       C  0.99367340  0.10182733  0.61041065     0.43000
N1666       N  0.92540290  0.47523944  0.68141569    -0.25200
C1667       C  0.53302471  0.41064705  0.61997679    -0.06100
N1668       N  0.97657231  0.39808064  0.69338532    -0.46300
N1669       N  0.52263351  0.09315715  0.62152353    -0.46600
C1670       C  0.00105573  0.39543743  0.61026497     0.42800
N1671       N  0.57182958  0.49058945  0.63528735     0.01600
N1672       N  0.92624119  0.47646411  0.63735079    -0.25200
N1673       N  0.52270524  0.42694348  0.67980410    -0.25700
N1674       N  0.92370858  0.01160175  0.63747751     0.01300
H1675       H  0.91021807  0.43575677  0.61637055     0.07200
H1676       H  0.93411242  0.08976295  0.61749098     0.07200
N1677       N  0.57011858  0.02576167  0.63671606    -0.25800
N1678       N  0.97588311  0.07237301  0.68210182    -0.25400
N1679       N  0.98528739  0.42539241  0.63636442     0.01600
C1680       C  0.61805815  0.00366138  0.69976751     0.43000
C1681       C  0.90057915  0.46111122  0.69400457    -0.06700
N1682       N  0.97531530  0.07256178  0.63797194    -0.25400
H1683       H  0.93457537  0.10143975  0.69760925     0.07200
N1684       N  0.60186838  0.47538765  0.69065977    -0.46600
H1685       H  0.89560120  0.43275075  0.69602312     0.07200
C1686       C  0.89741063  0.99506022  0.60989272     0.42900
C1687       C  0.53709565  0.40415254  0.69306540    -0.06200
Co1688     Co  0.95556980  0.44954590  0.65909881     0.73800
N1689       N  0.89613718  0.02130124  0.69340813    -0.46300
C1690       C  0.59826054  0.01051304  0.60861929     0.43100
N1691       N  0.97246705  0.40574840  0.62121206    -0.46300
Co1692     Co  0.94880636  0.04224307  0.65992013     0.73900
C1693       C  0.96218101  0.08856077  0.62147892    -0.06700
C1694       C  0.59869376  0.03559044  0.69325136    -0.06200
N1695       N  0.52051013  0.42887598  0.63586387    -0.25800
N1696       N  0.52324683  0.09986566  0.69520302    -0.46500
H1697       H  0.58915970  0.06901992  0.61774006     0.07100
C1698       C  0.91036076  0.46356345  0.62063659    -0.06600
Cl1699     Cl  0.99858052  0.00015082  0.65933598    -0.49600
C1700       C  0.88064007  0.99178713  0.70178457     0.42900
H1701       H  0.56094118  0.40890483  0.61569927     0.07100
N1702       N  0.90664445  0.02376236  0.62140492    -0.46300
C1703       C  0.61694781  0.99751595  0.29915391     0.42700
N1704       N  0.57680953  0.01574746  0.31974039     0.01600
C1705       C  0.96241424  0.41929480  0.38298320    -0.06200
H1706       H  0.93485268  0.39805944  0.30816121     0.07100
C1707       C  0.90633429  0.03289380  0.30249202    -0.06600
Co1708     Co  0.54321602  0.45582729  0.34409354     0.74200
N1709       N  0.97696764  0.42849743  0.32317285    -0.25800
Co1710     Co  0.95066290  0.46188552  0.34360520     0.74100
C1711       C  0.88936282  0.99938289  0.29542543     0.42800
N1712       N  0.98943480  0.07749140  0.31555673     0.01200
N1713       N  0.92511559  0.48820010  0.32002106     0.01400
N1714       N  0.52280545  0.41509455  0.38346071    -0.46600
H1715       H  0.60516032  0.43839157  0.30728994     0.07100
N1716       N  0.51231689  0.42579526  0.32332648     0.01600
N1717       N  0.92632946  0.49614518  0.36435896     0.01400
C1718       C  0.90135356  0.01799178  0.39079674     0.43000
N1719       N  0.52478485  0.07580524  0.31626266    -0.25200
C1720       C  0.58856079  0.47642866  0.38205500    -0.06100
N1721       N  0.60205065  0.02695045  0.30702991    -0.46300
N1722       N  0.91057116  0.48704687  0.38168008    -0.46600
C1723       C  0.60206266  0.00979634  0.39111405     0.42800
N1724       N  0.51181691  0.43332210  0.36743563     0.01600
N1725       N  0.52339414  0.08068373  0.36025307    -0.25200
N1726       N  0.57421774  0.48039111  0.32100590    -0.25700
N1727       N  0.98818121  0.08304080  0.35985122     0.01300
H1728       H  0.56369000  0.09916356  0.38127323     0.07200
H1729       H  0.91012728  0.07572480  0.37972427     0.07200
N1730       N  0.97665240  0.43616170  0.36695861    -0.25800
N1731       N  0.92817128  0.02326243  0.31765399    -0.25400
N1732       N  0.57465081  0.02165532  0.36345871     0.01600
C1733       C  0.99410366  0.38519361  0.30247936     0.43000
C1734       C  0.53870686  0.09858335  0.30245524    -0.06700
N1735       N  0.92803543  0.03115501  0.36171882    -0.25400
H1736       H  0.90048553  0.06014824  0.29824321     0.07200
N1737       N  0.52365298  0.39974800  0.31135709    -0.46600
H1738       H  0.56688469  0.10561331  0.30093568     0.07200
C1739       C  0.00433297  0.11231157  0.38652178     0.42900
C1740       C  0.59844179  0.46641179  0.30825015    -0.06200
Co1741     Co  0.55039551  0.04883952  0.33981352     0.73800
N1742       N  0.97824140  0.10064468  0.30186102    -0.46300
C1743       C  0.99302196  0.40551783  0.39413237     0.43100
N1744       N  0.59259296  0.03655944  0.37865194    -0.46300
Co1745     Co  0.95787704  0.05428422  0.33843948     0.73900
C1746       C  0.91203731  0.04715328  0.37739358    -0.06700
C1747       C  0.96311961  0.40393865  0.31036891    -0.06200
N1748       N  0.57192236  0.48649153  0.36507021    -0.25800
N1749       N  0.90186542  0.47312219  0.30732858    -0.46500
H1750       H  0.93399435  0.41669220  0.38606005     0.07100
C1751       C  0.53605696  0.09859206  0.37639411    -0.06600
Cl1752     Cl  0.00061006  0.00509734  0.34119053    -0.49600
C1753       C  0.00771298  0.11497460  0.29276506     0.42900
H1754       H  0.59052655  0.44920977  0.38741519     0.07100
N1755       N  0.97567654  0.10150157  0.37539801    -0.46300
N1756       N  0.48331207  0.19130810  0.49967282    -0.36300
N1757       N  0.48163051  0.24802263  0.46978362    -0.56900
N1758       N  0.48078583  0.30262353  0.50099571    -0.36300
N1759       N  0.48415661  0.24608763  0.53087690    -0.56900
C1760       C  0.49264362  0.17286806  0.48290588     0.27300
C1761       C  0.49332379  0.17182263  0.51587470     0.27300
C1762       C  0.48902976  0.32291431  0.48463032     0.27300
C1763       C  0.49003394  0.32188501  0.51761147     0.27300
C1764       C  0.47674399  0.21918696  0.45764795     0.35900
C1765       C  0.47543794  0.27710801  0.45823592     0.35900
C1766       C  0.47895870  0.21654219  0.54236823     0.35900
C1767       C  0.47772365  0.27436480  0.54303364     0.35900
C1768       C  0.50804945  0.14083514  0.48849145    -0.21600
C1769       C  0.50838859  0.14013367  0.50939019    -0.21600
C1770       C  0.50280376  0.35587972  0.49091489    -0.21600
C1771       C  0.50356803  0.35517167  0.51179101    -0.21600
C1772       C  0.46695801  0.22998305  0.43837563    -0.22700
C1773       C  0.46622993  0.26664571  0.43872848    -0.22700
C1774       C  0.46888051  0.22608710  0.56184090    -0.22700
C1775       C  0.46804116  0.26274074  0.56224786    -0.22700
C1776       C  0.48622471  0.18391244  0.46281594    -0.18000
C1777       C  0.48747999  0.18149447  0.53625238    -0.18000
C1778       C  0.48514897  0.31038527  0.53781252    -0.18000
C1779       C  0.48268857  0.31282474  0.46430209    -0.18000
H1780       H  0.51790092  0.12012230  0.47855998     0.14900
H1781       H  0.51855923  0.11879893  0.51873405     0.14900
H1782       H  0.51138708  0.37813484  0.48147076     0.14900
H1783       H  0.51287449  0.37672782  0.52155595     0.14900
H1784       H  0.46237706  0.21327916  0.42518083     0.13200
H1785       H  0.46098216  0.28359912  0.42582974     0.13200
H1786       H  0.46379307  0.20854887  0.57461330     0.13200
H1787       H  0.46217256  0.27902836  0.57537416     0.13200
H1788       H  0.46781005  0.21412168  0.50006926     0.26400
H1789       H  0.46638775  0.27851857  0.50088830     0.26400
N1790       N  0.80681531  0.51325696  0.49977843    -0.36300
N1791       N  0.75178896  0.51431236  0.53098115    -0.56900
N1792       N  0.69575759  0.51559736  0.50049686    -0.36300
N1793       N  0.75083592  0.51865224  0.46941517    -0.56900
C1794       C  0.82744461  0.51819670  0.51637840     0.27300
C1795       C  0.82686734  0.52266632  0.48349114     0.27300
C1796       C  0.67608481  0.52277721  0.51714990     0.27300
C1797       C  0.67553896  0.52336501  0.48418761     0.27300
C1798       C  0.78045321  0.50611822  0.54246257     0.35900
C1799       C  0.72261603  0.50908196  0.54286720     0.35900
C1800       C  0.77959453  0.51249942  0.45753011     0.35900
C1801       C  0.72160539  0.51186101  0.45785336     0.35900
C1802       C  0.86141243  0.53014738  0.51061094    -0.21600
C1803       C  0.86095905  0.53328348  0.48980157    -0.21600
C1804       C  0.64260373  0.53475070  0.51137201    -0.21600
C1805       C  0.64223651  0.53504668  0.49048708    -0.21600
C1806       C  0.76939683  0.49617254  0.56176850    -0.22700
C1807       C  0.73281645  0.49789368  0.56198435    -0.22700
C1808       C  0.76858372  0.50170907  0.43838244    -0.22700
C1809       C  0.73184978  0.50136544  0.43857484    -0.22700
C1810       C  0.81666251  0.51036896  0.53640561    -0.18000
C1811       C  0.81559961  0.51969069  0.46311238    -0.18000
C1812       C  0.68586127  0.51792438  0.46387367    -0.18000
C1813       C  0.68701288  0.51674905  0.53730360    -0.18000
H1814       H  0.88410845  0.53603007  0.52036184     0.14900
H1815       H  0.88330404  0.54193996  0.48039876     0.14900
H1816       H  0.62060909  0.54207610  0.52116825     0.14900
H1817       H  0.61992691  0.54261965  0.48102913     0.14900
H1818       H  0.78587581  0.48901305  0.57456249     0.13200
H1819       H  0.71572633  0.49203530  0.57487726     0.13200
H1820       H  0.78529072  0.49526060  0.42551189     0.13200
H1821       H  0.71466269  0.49463594  0.42586835     0.13200
H1822       H  0.78184021  0.50038603  0.49947472     0.26400
H1823       H  0.71995205  0.50226974  0.50021469     0.26400
C1824       C  0.49988566  0.25578709  0.25102438    -0.02200
C1825       C  0.49733157  0.28980227  0.26497015     0.00100
C1826       C  0.49696682  0.28730497  0.28639209    -0.11700
C1827       C  0.49562126  0.31783578  0.29882189     0.02400
C1828       C  0.99358295  0.35210192  0.29013421     0.00000
C1829       C  0.99091581  0.35511265  0.26915567    -0.11700
C1830       C  0.99254900  0.32486304  0.25658528     0.02300
H1831       H  0.49685791  0.26155038  0.29379881     0.15200
H1832       H  0.98855507  0.38152228  0.26247487     0.15200
C1833       C  0.99184118  0.33163494  0.23505004     0.36900
C1834       C  0.49532279  0.31323936  0.32052799     0.36800
N1835       N  0.99146322  0.33804911  0.21790612    -0.43500
N1836       N  0.49483951  0.30942767  0.33791761    -0.43500
C1837       C  0.00714122  0.14941474  0.28142300     0.00100
C1838       C  0.53277427  0.17649005  0.28540449    -0.11700
C1839       C  0.53108158  0.21039603  0.27612990     0.02400
C1840       C  0.50241969  0.21872792  0.26262968     0.00000
C1841       C  0.97866788  0.18960225  0.25767275    -0.11700
C1842       C  0.98036496  0.15606721  0.26706283     0.02300
H1843       H  0.55402318  0.17143858  0.29617757     0.15200
H1844       H  0.95882058  0.19186679  0.24587084     0.15200
C1845       C  0.95505280  0.12824809  0.26095027     0.36900
C1846       C  0.55938257  0.23571515  0.28126138     0.36800
N1847       N  0.93488037  0.10595186  0.25599281    -0.43500
N1848       N  0.58234073  0.25515918  0.28616620    -0.43500
C1849       C  0.00203835  0.12717715  0.40732662     0.00100
C1850       C  0.97057749  0.12078122  0.41871438    -0.11700
C1851       C  0.46611181  0.13645206  0.43783451     0.02400
C1852       C  0.49329009  0.15910128  0.44574909     0.00000
C1853       C  0.52543615  0.16391488  0.43499032    -0.11700
C1854       C  0.53003758  0.14837336  0.41591206     0.02300
H1855       H  0.94909409  0.10409044  0.41252413     0.15200
H1856       H  0.54610281  0.18184522  0.44099441     0.15200
C1857       C  0.56252337  0.15740070  0.40497336     0.36900
C1858       C  0.93291628  0.13032484  0.44870708     0.36800
N1859       N  0.58863030  0.16499755  0.39634153    -0.43500
N1860       N  0.90642055  0.12534836  0.45752390    -0.43500
C1861       C  0.99169467  0.38383843  0.41313763     0.00100
C1862       C  0.95790037  0.37534362  0.42173324    -0.11700
C1863       C  0.95475722  0.35458823  0.43926884     0.02400
C1864       C  0.48560343  0.34038073  0.44814412     0.00000
C1865       C  0.51943211  0.34917510  0.44006166    -0.11700
C1866       C  0.52282303  0.37118909  0.42292723     0.02300
H1867       H  0.93351558  0.38474186  0.41484440     0.15200
H1868       H  0.54321942  0.33822833  0.44698527     0.15200
C1869       C  0.55858619  0.37980233  0.41582004     0.36900
C1870       C  0.91954360  0.34742193  0.44770139     0.36800
N1871       N  0.58746760  0.38654339  0.41037179    -0.43500
N1872       N  0.89141979  0.34177593  0.45458762    -0.43500
C1873       C  0.61974905  0.01468862  0.41105040     0.00100
C1874       C  0.61746369  0.48670338  0.42526520    -0.11700
C1875       C  0.63629504  0.48871550  0.44354677     0.02400
C1876       C  0.65840350  0.51881394  0.44766379     0.00000
C1877       C  0.65888900  0.04783610  0.43422221    -0.11700
C1878       C  0.63951243  0.04625314  0.41610547     0.02300
H1879       H  0.60135527  0.46290106  0.42205368     0.15200
H1880       H  0.67585151  0.07109021  0.43748996     0.15200
C1881       C  0.64191827  0.07681645  0.40274743     0.36900
C1882       C  0.63358953  0.45910243  0.45754491     0.36800
N1883       N  0.64383616  0.10145756  0.39214646    -0.43500
N1884       N  0.63114594  0.43554833  0.46887733    -0.43500
C1885       C  0.84234250  0.52373072  0.44647175     0.00100
C1886       C  0.86901745  0.49806933  0.44426849    -0.11700
C1887       C  0.89017205  0.49716637  0.42675263     0.02400
C1888       C  0.88354391  0.02111683  0.41071867     0.00000
C1889       C  0.85896434  0.04863964  0.41368556    -0.11700
C1890       C  0.83879246  0.05043841  0.43151251     0.02300
H1891       H  0.87282571  0.47831997  0.45607390     0.15200
H1892       H  0.85459765  0.06811991  0.40181398     0.15200
C1893       C  0.81369353  0.07915866  0.43387923     0.36900
C1894       C  0.92013845  0.47340934  0.42632358     0.36800
N1895       N  0.79356881  0.10214500  0.43582719    -0.43500
N1896       N  0.94493378  0.45528778  0.42654775    -0.43500
C1897       C  0.66011336  0.51827509  0.55384773     0.00100
C1898       C  0.63609666  0.48928609  0.55647409    -0.11700
C1899       C  0.61505710  0.48637044  0.57401038     0.02400
C1900       C  0.61825344  0.01275537  0.58930494     0.00000
C1901       C  0.64101925  0.04266931  0.58608753    -0.11700
C1902       C  0.66185707  0.04562215  0.56856881     0.02300
H1903       H  0.63467993  0.46833879  0.54508295     0.15200
H1904       H  0.64354152  0.06333017  0.59758169     0.15200
C1905       C  0.68608809  0.07608470  0.56642474     0.36900
C1906       C  0.58986196  0.45664996  0.57553299     0.36800
N1907       N  0.70562366  0.10040416  0.56478005    -0.43500
N1908       N  0.56954128  0.43284996  0.57631950    -0.43500
C1909       C  0.84417466  0.50722056  0.55243952     0.00100
C1910       C  0.85258530  0.47285431  0.55910650    -0.11700
C1911       C  0.86957821  0.46772953  0.57771542     0.02400
C1912       C  0.88075317  0.99784008  0.58946557     0.00000
C1913       C  0.87437643  0.03242444  0.58183738    -0.11700
C1914       C  0.85538978  0.03722941  0.56381634     0.02300
H1915       H  0.84272142  0.44979476  0.55059439     0.15200
H1916       H  0.88241737  0.05593243  0.59050028     0.15200
C1917       C  0.84458466  0.07280878  0.55822158     0.36900
C1918       C  0.87149317  0.43125140  0.58473444     0.36800
N1919       N  0.83509564  0.10104645  0.55373364    -0.43500
N1920       N  0.87196224  0.40165355  0.58994820    -0.43500
C1921       C  0.99467100  0.11786100  0.58979642     0.00100
C1922       C  0.96365186  0.11559566  0.57762287    -0.11700
C1923       C  0.96200815  0.13366763  0.55908941     0.02400
C1924       C  0.49158068  0.15445488  0.55247379     0.00000
C1925       C  0.52336750  0.15479288  0.56375049    -0.11700
C1926       C  0.52530785  0.13657309  0.58222228     0.02300
H1927       H  0.94021404  0.10053202  0.58273297     0.15200
H1928       H  0.54607708  0.17102090  0.55861641     0.15200
C1929       C  0.55846499  0.13952700  0.59343909     0.36900
C1930       C  0.92918687  0.13248063  0.54750908     0.36800
N1931       N  0.58521024  0.14209280  0.60226751    -0.43500
N1932       N  0.90333102  0.13207811  0.53782697    -0.43500
C1933       C  0.99876323  0.37540445  0.59100698     0.00100
C1934       C  0.96955041  0.38124090  0.57805337    -0.11700
C1935       C  0.96551069  0.36173833  0.56002905     0.02400
C1936       C  0.49113210  0.33607818  0.55474257     0.00000
C1937       C  0.52084619  0.33101581  0.56737812    -0.11700
C1938       C  0.52460766  0.34998904  0.58552429     0.02300
H1939       H  0.94961396  0.40076747  0.58214518     0.15200
H1940       H  0.54013243  0.31067398  0.56353336     0.15200
C1941       C  0.55341398  0.34046185  0.59897254     0.36900
C1942       C  0.93418774  0.36731019  0.54766819     0.36800
N1943       N  0.57630278  0.33251289  0.60981368    -0.43500
N1944       N  0.90907982  0.37177805  0.53775406    -0.43500
C1945       C  0.59718400  0.24928731  0.21214608     0.00100
C1946       C  0.59441986  0.27769476  0.22575888    -0.11700
C1947       C  0.56450427  0.28141196  0.23846462     0.02400
C1948       C  0.53445674  0.25666713  0.23713350     0.00000
C1949       C  0.53811264  0.22803043  0.22314267    -0.11700
C1950       C  0.56830704  0.22453155  0.21062508     0.02300
H1951       H  0.61686494  0.29656372  0.22710212     0.15200
H1952       H  0.51664940  0.20814555  0.22176696     0.15200
C1953       C  0.56785389  0.19632191  0.19564388     0.36900
C1954       C  0.56873929  0.30944355  0.25338885     0.36800
N1955       N  0.56710989  0.17385498  0.18354303    -0.43500
N1956       N  0.57374861  0.33206698  0.26512535    -0.43500
C1957       C  0.89758239  0.25371377  0.21683965     0.00100
C1958       C  0.89752302  0.25264583  0.23789385    -0.11700
C1959       C  0.92960805  0.25408671  0.24886795     0.02400
C1960       C  0.96365106  0.25626775  0.23871059     0.00000
C1961       C  0.96277873  0.25900014  0.21727511    -0.11700
C1962       C  0.93038800  0.25734929  0.20644545     0.02300
H1963       H  0.87207190  0.25044725  0.24586359     0.15200
H1964       H  0.98708581  0.26324257  0.20862889     0.15200
C1965       C  0.93138754  0.25945516  0.18460235     0.36900
C1966       C  0.92611750  0.25147278  0.27060779     0.36800
N1967       N  0.93201801  0.26106133  0.16710129    -0.43500
N1968       N  0.92236052  0.24912439  0.28796130    -0.43500
C1969       C  0.75464041  0.09216909  0.05400090     0.00100
C1970       C  0.72183596  0.09794095  0.06367499    -0.11700
C1971       C  0.72061286  0.11533360  0.08239322     0.02400
C1972       C  0.75280844  0.12831614  0.09143825     0.00000
C1973       C  0.78528070  0.12508679  0.08071161    -0.11700
C1974       C  0.78645797  0.10676971  0.06226180     0.02300
H1975       H  0.69744773  0.08619791  0.05733433     0.15200
H1976       H  0.81017046  0.13557530  0.08699361     0.15200
C1977       C  0.82076865  0.10148166  0.05262853     0.36900
C1978       C  0.68625014  0.11655426  0.09244799     0.36800
N1979       N  0.84826126  0.09724928  0.04490146    -0.43500
N1980       N  0.65853163  0.11682519  0.10036067    -0.43500
C1981       C  0.76400608  0.40729066  0.05392099     0.00100
C1982       C  0.79460607  0.40255880  0.06579713    -0.11700
C1983       C  0.79244429  0.38392206  0.08413929     0.02400
C1984       C  0.75912332  0.36870905  0.09059471     0.00000
C1985       C  0.72886128  0.37237617  0.07810598    -0.11700
C1986       C  0.73103049  0.39174977  0.06001859     0.02300
H1987       H  0.81975530  0.41537622  0.06129225     0.15200
H1988       H  0.70315983  0.36087606  0.08260216     0.15200
C1989       C  0.69867731  0.39761772  0.04856393     0.36900
C1990       C  0.82467224  0.38223590  0.09621245     0.36800
N1991       N  0.67297692  0.40287061  0.03929513    -0.43500
N1992       N  0.85059879  0.38095243  0.10580256    -0.43500
C1993       C  0.74807439  0.08899550  0.94773097     0.00100
C1994       C  0.77961816  0.08802426  0.93625730    -0.11700
C1995       C  0.78186567  0.10475123  0.91744683     0.02400
C1996       C  0.75253764  0.12462635  0.91022066     0.00000
C1997       C  0.72145746  0.12694453  0.92223388    -0.11700
C1998       C  0.71889612  0.10898919  0.94081900     0.02300
H1999       H  0.80164697  0.07173940  0.94140261     0.15200
H2000       H  0.69881155  0.14212446  0.91690426     0.15200
C2001       C  0.68562071  0.10994136  0.95199042     0.36900
C2002       C  0.81321594  0.09769596  0.90531132     0.36800
N2003       N  0.65881979  0.11078893  0.96084014    -0.43500
N2004       N  0.83837123  0.09140886  0.89573582    -0.43500
C2005       C  0.75708100  0.40658203  0.94819264     0.00100
C2006       C  0.72371320  0.39168240  0.94289293    -0.11700
C2007       C  0.71912495  0.37261668  0.92482167     0.02400
C2008       C  0.74908376  0.36661404  0.91199935     0.00000
C2009       C  0.78304367  0.37985081  0.91817800    -0.11700
C2010       C  0.78710444  0.40025996  0.93585279     0.02300
H2011       H  0.70053511  0.39733471  0.95226630     0.15200
H2012       H  0.80643231  0.37563116  0.90874243     0.15200
C2013       C  0.82187119  0.41599041  0.94042563     0.36900
C2014       C  0.68278212  0.36221764  0.91978088     0.36800
N2015       N  0.84982271  0.42859342  0.94389684    -0.43500
N2016       N  0.65301560  0.35522535  0.91630183    -0.43500
C2017       C  0.99825934  0.21539688  0.73727942     0.00100
C2018       C  0.52219599  0.18696514  0.74148687    -0.11700
C2019       C  0.52171100  0.15461832  0.73074548     0.02400
C2020       C  0.99507706  0.14770891  0.71620881     0.00000
C2021       C  0.96909871  0.17371349  0.71293110    -0.11700
C2022       C  0.97018265  0.20689606  0.72316207     0.02300
H2023       H  0.54154491  0.18876402  0.75359173     0.15200
H2024       H  0.94799816  0.16837708  0.70196870     0.15200
C2025       C  0.94156157  0.23094585  0.71843917     0.36900
C2026       C  0.54840037  0.12832610  0.73553858     0.36800
N2027       N  0.91802612  0.24889216  0.71371378    -0.43500
N2028       N  0.56991701  0.10742882  0.73935524    -0.43500
C2029       C  0.00540454  0.28673684  0.73670511     0.00100
C2030       C  0.00504395  0.28603625  0.71525329    -0.11700
C2031       C  0.00518935  0.31773491  0.70377214     0.02400
C2032       C  0.00792509  0.35126249  0.71346147     0.00000
C2033       C  0.51188697  0.35253355  0.73442694    -0.11700
C2034       C  0.51045714  0.32119716  0.74609653     0.02300
H2035       H  0.00440163  0.26094357  0.70712685     0.15200
H2036       H  0.51450907  0.37841664  0.74185336     0.15200
C2037       C  0.51088872  0.32621630  0.76780000     0.36900
C2038       C  0.00218275  0.31524194  0.68201785     0.36800
N2039       N  0.51097625  0.33119600  0.78510580    -0.43500
N2040       N  0.99962876  0.31327489  0.66458513    -0.43500
C2041       C  0.53600762  0.25163601  0.76318542     0.00100
C2042       C  0.53513912  0.25188962  0.78468503    -0.11700
C2043       C  0.56652103  0.24888627  0.79637484     0.02400
C2044       C  0.60019567  0.24589099  0.78688259     0.00000
C2045       C  0.60196952  0.24748243  0.76581557    -0.11700
C2046       C  0.57093402  0.25081107  0.75400779     0.02300
H2047       H  0.51026588  0.25530069  0.79277200     0.15200
H2048       H  0.62798869  0.24615675  0.75847263     0.15200
C2049       C  0.57619702  0.25131398  0.73232678     0.36900
C2050       C  0.56346804  0.24913386  0.81817856     0.36800
N2051       N  0.58111675  0.25150529  0.71501647    -0.43500
N2052       N  0.56087086  0.24936214  0.83564619    -0.43500
C2053       C  0.90193628  0.24983535  0.78772045     0.00100
C2054       C  0.90694336  0.27716915  0.77362376    -0.11700
C2055       C  0.93666294  0.27845666  0.76064822     0.02400
C2056       C  0.96487413  0.25273202  0.76249660     0.00000
C2057       C  0.95803116  0.22400782  0.77608496    -0.11700
C2058       C  0.92760128  0.22255478  0.78868872     0.02300
H2059       H  0.88633600  0.29717628  0.77210063     0.15200
H2060       H  0.97738681  0.20278918  0.77728806     0.15200
C2061       C  0.92439603  0.19342335  0.80298750     0.36900
C2062       C  0.93364144  0.30485166  0.74479671     0.36800
N2063       N  0.92211440  0.17005194  0.81445555    -0.43500
N2064       N  0.92938635  0.32606003  0.73228499    -0.43500
C2065       C  0.78109555  0.99794656  0.73643369     0.00100
C2066       C  0.78898861  0.46683322  0.72507233    -0.11700
C2067       C  0.82076214  0.46368037  0.71381539     0.02400
C2068       C  0.84574545  0.99263925  0.71298163     0.00000
C2069       C  0.83609660  0.02507319  0.72201732    -0.11700
C2070       C  0.80387888  0.02860379  0.73278700     0.02300
H2071       H  0.77069988  0.44394768  0.72572051     0.15200
H2072       H  0.85356516  0.04846644  0.72019750     0.15200
C2073       C  0.79406037  0.06498348  0.73735402     0.36900
C2074       C  0.82566769  0.43080640  0.70273101     0.36800
N2075       N  0.78670401  0.09446317  0.74052032    -0.43500
N2076       N  0.82881086  0.40427946  0.69385682    -0.43500
C2077       C  0.65288901  0.00081932  0.71055377     0.00100
C2078       C  0.66035788  0.46848501  0.72034868    -0.11700
C2079       C  0.69180149  0.46429925  0.73167907     0.02400
C2080       C  0.71525984  0.99436445  0.73515452     0.00000
C2081       C  0.71056159  0.02423802  0.72226159    -0.11700
C2082       C  0.67975138  0.02794405  0.71035636     0.02300
H2083       H  0.64167498  0.44595408  0.71890001     0.15200
H2084       H  0.72977167  0.04630207  0.72265213     0.15200
C2085       C  0.67695754  0.05977317  0.69812733     0.36900
C2086       C  0.70033790  0.42798558  0.73711349     0.36800
N2087       N  0.67519998  0.08537041  0.68832566    -0.43500
N2088       N  0.70679944  0.39857469  0.74102848    -0.43500
C2089       C  0.74541181  0.02979530  0.76512083     0.00100
C2090       C  0.77589126  0.03647289  0.77749016    -0.11700
C2091       C  0.78056295  0.06840401  0.78854677     0.02400
C2092       C  0.75332134  0.09422958  0.78857006     0.00000
C2093       C  0.72137741  0.08611666  0.77832905    -0.11700
C2094       C  0.71660718  0.05455831  0.76710187     0.02300
H2095       H  0.79762248  0.01756623  0.77734457     0.15200
H2096       H  0.69953122  0.10492072  0.77906741     0.15200
C2097       C  0.68072100  0.04913337  0.75933771     0.36900
C2098       C  0.81382465  0.07345974  0.79942292     0.36800
N2099       N  0.65143902  0.04615222  0.75362222    -0.43500
N2100       N  0.84084518  0.07694684  0.80790254    -0.43500
C2101       C  0.74995269  0.39834572  0.78881863     0.00100
C2102       C  0.71978819  0.42016676  0.78910591    -0.11700
C2103       C  0.71886548  0.45248549  0.77822866     0.02400
C2104       C  0.74831823  0.46334953  0.76559264     0.00000
C2105       C  0.78019762  0.44348315  0.76791740    -0.11700
C2106       C  0.78088969  0.41105332  0.77861490     0.02300
H2107       H  0.69638273  0.41190181  0.79781516     0.15200
H2108       H  0.80523106  0.45278443  0.76131395     0.15200
C2109       C  0.81359835  0.39089587  0.77819390     0.36900
C2110       C  0.68594674  0.47189538  0.77982455     0.36800
N2111       N  0.83980455  0.37475666  0.77775530    -0.43500
N2112       N  0.65847145  0.48526904  0.78206809    -0.43500
C2113       C  0.59382338  0.24621899  0.05355899     0.00100
C2114       C  0.58891618  0.21627214  0.06607792    -0.11700
C2115       C  0.60690622  0.21389030  0.08451778     0.02400
C2116       C  0.63146852  0.24139680  0.09032274     0.00000
C2117       C  0.63770757  0.27052649  0.07720101    -0.11700
C2118       C  0.61894026  0.27317997  0.05893348     0.02300
H2119       H  0.56889197  0.19597491  0.06206593     0.15200
H2120       H  0.65658274  0.29171639  0.08145185     0.15200
C2121       C  0.62420016  0.30460886  0.04648593     0.36900
C2122       C  0.59649826  0.18491409  0.09788868     0.36800
N2123       N  0.62817545  0.32970764  0.03639865    -0.43500
N2124       N  0.58754321  0.16177160  0.10852302    -0.43500
C2125       C  0.91245556  0.24098970  0.05575985     0.00100
C2126       C  0.88445820  0.26505596  0.05821011    -0.11700
C2127       C  0.86359711  0.26462883  0.07582646     0.02400
C2128       C  0.87178228  0.24101023  0.09181059     0.00000
C2129       C  0.89772559  0.21484501  0.08861900    -0.11700
C2130       C  0.91776030  0.21439171  0.07063481     0.02300
H2131       H  0.87935644  0.28466512  0.04649746     0.15200
H2132       H  0.90327874  0.19560227  0.10044978     0.15200
C2133       C  0.94440134  0.18718206  0.06795101     0.36900
C2134       C  0.83246792  0.28685589  0.07645140     0.36800
N2135       N  0.96576248  0.16543231  0.06567401    -0.43500
N2136       N  0.80685227  0.30382433  0.07657793    -0.43500
C2137       C  0.62914472  0.23987433  0.91044208     0.00100
C2138       C  0.63814197  0.26668623  0.92457592    -0.11700
C2139       C  0.61912013  0.26964450  0.94278758     0.02400
C2140       C  0.59072393  0.24527545  0.94698345     0.00000
C2141       C  0.58344429  0.21699612  0.93351296    -0.11700
C2142       C  0.60212802  0.21424038  0.91527041     0.02300
H2143       H  0.65986541  0.28547565  0.92126313     0.15200
H2144       H  0.56163953  0.19818216  0.93679881     0.15200
C2145       C  0.59105308  0.18647141  0.90124199     0.36900
C2146       C  0.62831504  0.29843156  0.95658114     0.36800
N2147       N  0.58205977  0.16422166  0.89001674    -0.43500
N2148       N  0.63579632  0.32132671  0.96773182    -0.43500
C2149       C  0.87006859  0.24907628  0.91219029     0.00100
C2150       C  0.86867065  0.27902020  0.92514164    -0.11700
C2151       C  0.88769549  0.27989049  0.94342257     0.02400
C2152       C  0.90842311  0.25039220  0.94902799     0.00000
C2153       C  0.90830380  0.21974615  0.93675883    -0.11700
C2154       C  0.88953128  0.21882945  0.91843701     0.02300
H2155       H  0.85333575  0.30218675  0.92085361     0.15200
H2156       H  0.92470834  0.19724780  0.94098710     0.15200
C2157       C  0.89301488  0.18745682  0.90582268     0.36900
C2158       C  0.88702291  0.31191409  0.95570175     0.36800
N2159       N  0.89603985  0.16235551  0.89570018    -0.43500
N2160       N  0.88640494  0.33758691  0.96553582    -0.43500
C2161       C  0.78633251  0.99207900  0.26497248     0.00100
C2162       C  0.81923593  0.99413675  0.25399704    -0.11700
C2163       C  0.85270839  0.99636846  0.26357661     0.02400
C2164       C  0.85463886  0.99621887  0.28474088     0.00000
C2165       C  0.82309806  0.49128091  0.29595627    -0.11700
C2166       C  0.78929249  0.48845573  0.28655225     0.02300
H2167       H  0.81873374  0.99571803  0.23761767     0.15200
H2168       H  0.82499078  0.48949486  0.31233001     0.15200
C2169       C  0.75988641  0.48041538  0.30009004     0.36900
C2170       C  0.88484257  0.99846870  0.25135006     0.36800
N2171       N  0.73741363  0.47375162  0.31169947    -0.43500
N2172       N  0.91066206  0.99983028  0.24159637    -0.43500
C2173       C  0.71441411  0.99546657  0.26323408     0.00100
C2174       C  0.70967629  0.02199128  0.27823316    -0.11700
C2175       C  0.67874244  0.02283913  0.29035678     0.02400
C2176       C  0.65033512  0.99799227  0.28696511     0.00000
C2177       C  0.65264349  0.47453363  0.27063217    -0.11700
C2178       C  0.68291617  0.47451780  0.25805411     0.02300
H2179       H  0.73135832  0.04085427  0.28145339     0.15200
H2180       H  0.62963697  0.45742630  0.26698192     0.15200
C2181       C  0.67792304  0.45582727  0.23905185     0.36900
C2182       C  0.67816120  0.04785094  0.30704883     0.36800
N2183       N  0.67299385  0.44090578  0.22389602    -0.43500
N2184       N  0.67800053  0.06773345  0.32051130    -0.43500
C2185       C  0.74802424  0.09600191  0.21616873     0.00100
C2186       C  0.77095857  0.09364982  0.23275583    -0.11700
C2187       C  0.77221279  0.06278006  0.24480310     0.02400
C2188       C  0.75183474  0.03097696  0.23944968     0.00000
C2189       C  0.72715790  0.03482703  0.22328270    -0.11700
C2190       C  0.72548802  0.06630130  0.21159479     0.02300
H2191       H  0.78725155  0.11698887  0.23685835     0.15200
H2192       H  0.70941150  0.01261488  0.21936107     0.15200
C2193       C  0.70160155  0.06659697  0.19441090     0.36900
C2194       C  0.79248004  0.06739021  0.26329231     0.36800
N2195       N  0.68256294  0.06656454  0.18057451    -0.43500
N2196       N  0.80891161  0.07244478  0.27792314    -0.43500
C2197       C  0.75373732  0.45988184  0.23829882     0.00100
C2198       C  0.76207055  0.46159832  0.21734462    -0.11700
C2199       C  0.76123130  0.43083169  0.20502867     0.02400
C2200       C  0.75326909  0.39708104  0.21354890     0.00000
C2201       C  0.74821039  0.39432692  0.23434689    -0.11700
C2202       C  0.74903584  0.42470930  0.24678500     0.02300
H2203       H  0.76947080  0.48680046  0.21030679     0.15200
H2204       H  0.74299543  0.36807718  0.24092518     0.15200
C2205       C  0.74134338  0.41803402  0.26786312     0.36900
C2206       C  0.76782285  0.43458602  0.18357693     0.36800
N2207       N  0.73405654  0.41029336  0.28434413    -0.43500
N2208       N  0.77295456  0.43750329  0.16636248    -0.43500
C2209       C  0.75132180  0.99454456  0.25176115    -0.02200
N2210       N  0.94584811  0.75324848  0.00205285    -0.36300
N2211       N  0.50064949  0.75365397  0.97078231    -0.56900
N2212       N  0.55768370  0.75488455  0.00064035    -0.36300
N2213       N  0.50268839  0.75114540  0.03180010    -0.56900
C2214       C  0.92539717  0.74615513  0.98560088     0.27300
C2215       C  0.92676773  0.74287418  0.01854557     0.27300
C2216       C  0.57639543  0.74559895  0.98398673     0.27300
C2217       C  0.57752342  0.74593756  0.01688693     0.27300
C2218       C  0.97146483  0.76026426  0.95935531     0.35900
C2219       C  0.52946080  0.75927522  0.95866313     0.37500
C2220       C  0.97408039  0.75609762  0.04397867     0.35900
C2221       C  0.53197067  0.75884886  0.04311119     0.35900
C2222       C  0.89242341  0.73202508  0.99167517    -0.21600
C2223       C  0.89335692  0.72976581  0.01252605    -0.21600
C2224       C  0.60898181  0.73135810  0.98968948    -0.21600
C2225       C  0.60973835  0.73168412  0.01055731    -0.21600
C2226       C  0.98182623  0.77030235  0.93995708    -0.22700
C2227       C  0.51854174  0.76970229  0.93952776    -0.22700
C2228       C  0.98521727  0.76742147  0.06300458    -0.22700
C2229       C  0.52193478  0.76914057  0.06245881    -0.22700
C2230       C  0.93561516  0.75324548  0.96537767    -0.18000
C2231       C  0.93839363  0.74667241  0.03883156    -0.18000
C2232       C  0.56742722  0.75156560  0.03717622    -0.18000
C2233       C  0.56512135  0.75102953  0.96386851    -0.18000
H2234       H  0.87011465  0.72403943  0.98208890     0.14900
H2235       H  0.87184744  0.71978066  0.02213739     0.14900
H2236       H  0.63000503  0.72179230  0.97985558     0.14900
H2237       H  0.63141030  0.72239878  0.01997754     0.14900
H2238       H  0.96468641  0.77640439  0.92724470     0.13200
H2239       H  0.53526043  0.77534914  0.92645069     0.13200
H2240       H  0.96865209  0.77288953  0.07608369     0.13200
H2241       H  0.53932007  0.77595253  0.07506972     0.13200
H2242       H  0.97003487  0.76758658  0.00207331     0.26400
H2243       H  0.53421801  0.76951323  0.00093257     0.26400
C2244       C  0.74696306  0.49638059  0.75066552    -0.02200
C2245       C  0.50078830  0.75184272  0.74974966    -0.02200
N2246       N  0.74802082  0.55439730  0.00140477    -0.36300
N2247       N  0.76163086  0.99995326  0.03203118    -0.56900
N2248       N  0.76041372  0.94413703  0.00113943    -0.36300
N2249       N  0.75164651  0.99875145  0.97044852    -0.56900
C2250       C  0.75523877  0.57576059  0.01746873     0.27300
C2251       C  0.75022432  0.57508068  0.98465097     0.27300
C2252       C  0.76830878  0.92397920  0.01743625     0.27300
C2253       C  0.76545097  0.92380276  0.98445862     0.27300
C2254       C  0.75655178  0.52852120  0.04423185     0.35900
C2255       C  0.76090101  0.97083074  0.04419804     0.35900
C2256       C  0.74128684  0.52664398  0.95900119     0.35900
C2257       C  0.74855517  0.96931979  0.95860287     0.35900
C2258       C  0.76075544  0.61074863  0.01095239    -0.21600
C2259       C  0.75784804  0.61027427  0.99016717    -0.21600
C2260       C  0.77797329  0.89005356  0.01111854    -0.21600
C2261       C  0.77634590  0.88999292  0.99024831    -0.21600
C2262       C  0.75382121  0.51755360  0.06425043    -0.22700
C2263       C  0.75629450  0.98113051  0.06421311    -0.22700
C2264       C  0.73171901  0.51491673  0.93978916    -0.22700
C2265       C  0.73646439  0.97870186  0.93949740    -0.22700
C2266       C  0.75559271  0.56465822  0.03786939    -0.18000
C2267       C  0.74471066  0.56306005  0.96460700    -0.18000
C2268       C  0.75787706  0.93421251  0.96435160    -0.18000
C2269       C  0.76502043  0.93492863  0.03783119    -0.18000
H2270       H  0.76651413  0.63413972  0.02018644     0.14900
H2271       H  0.76081883  0.63324758  0.98027183     0.14900
H2272       H  0.78516391  0.86762358  0.02056418     0.14900
H2273       H  0.78184943  0.86742483  0.98048818     0.14900
H2274       H  0.75029699  0.53396702  0.07759623     0.13200
H2275       H  0.75487640  0.96423532  0.07751151     0.13200
H2276       H  0.72304417  0.53095765  0.92712083     0.13200
H2277       H  0.73187983  0.96141102  0.92655405     0.13200
H2278       H  0.73885255  0.52805759  0.00201418     0.26400
H2279       H  0.74822504  0.96871921  0.00159792     0.26400
C2280       C  0.85201911  0.75056164  0.89219143     0.42700
N2281       N  0.82449081  0.73416219  0.86507321     0.01600
C2282       C  0.71683769  0.84435710  0.80762872    -0.06200
H2283       H  0.68706687  0.83681220  0.88397650     0.07100
C2284       C  0.66020314  0.70882602  0.87957401    -0.06600
Co2285     Co  0.79471154  0.79614826  0.84277101     0.74200
N2286       N  0.72857404  0.81788710  0.86467385    -0.25800
Co2287     Co  0.70164120  0.78930443  0.84228101     0.74100
C2288       C  0.64759113  0.73977536  0.89069067     0.42800
N2289       N  0.73654492  0.67132236  0.86390824     0.01200
N2290       N  0.67581511  0.75791659  0.86424235     0.01400
N2291       N  0.77734977  0.84832641  0.80865672    -0.46600
H2292       H  0.84230779  0.81022161  0.88560668     0.07100
N2293       N  0.76382417  0.82064693  0.86502440     0.01600
N2294       N  0.67465383  0.75948796  0.82008056     0.01400
C2295       C  0.63421307  0.74386981  0.79846498     0.43000
N2296       N  0.77180766  0.67450327  0.86393719    -0.25200
C2297       C  0.85056202  0.78227337  0.80811329    -0.06100
N2298       N  0.84182870  0.72182494  0.88101307    -0.46300
N2299       N  0.64958489  0.77219337  0.80797365    -0.46600
C2300       C  0.86911003  0.75058888  0.80055294     0.42800
N2301       N  0.76489130  0.82275484  0.82082266     0.01600
N2302       N  0.77304318  0.67346790  0.82019529    -0.25200
N2303       N  0.82271016  0.76936839  0.86506599    -0.25700
N2304       N  0.73762838  0.67066033  0.81981903     0.01300
H2305       H  0.81485218  0.64365169  0.80595042     0.07200
H2306       H  0.64399735  0.68392855  0.80408165     0.07200
N2307       N  0.72946128  0.82008118  0.82064839    -0.25800
N2308       N  0.67746416  0.72268541  0.86355191    -0.25400
N2309       N  0.82742271  0.73404219  0.82110168     0.01600
C2310       C  0.74676605  0.84773371  0.89211857     0.43000
C2311       C  0.78487262  0.65736985  0.87994148    -0.06700
N2312       N  0.67641876  0.72411049  0.81952582    -0.25400
H2313       H  0.65852795  0.68072524  0.88347472     0.07200
N2314       N  0.77578870  0.83828512  0.88113747    -0.46600
H2315       H  0.81280592  0.65722895  0.88423241     0.07200
C2316       C  0.75530596  0.62895208  0.79974456     0.42900
C2317       C  0.83952746  0.78223168  0.88155164    -0.06200
Co2318     Co  0.79958240  0.70371429  0.84243188     0.73800
N2319       N  0.72431935  0.65259082  0.87960649    -0.46300
C2320       C  0.74871558  0.86325227  0.79965358     0.43100
N2321       N  0.85320473  0.72180906  0.80929373    -0.46300
Co2322     Co  0.70649784  0.69663555  0.84148654     0.73900
C2323       C  0.65159581  0.71178169  0.80627898    -0.06700
C2324       C  0.71530209  0.83452506  0.88091703    -0.06200
N2325       N  0.82545138  0.76937436  0.82092598    -0.25800
N2326       N  0.65829348  0.76937085  0.88040171    -0.46500
H2327       H  0.68878961  0.85034873  0.80560301     0.07100
C2328       C  0.78659280  0.64868700  0.80774654    -0.06600
Cl2329     Cl  0.75058618  0.74645642  0.84192839    -0.49600
C2330       C  0.75345640  0.64267450  0.89029892     0.42900
H2331       H  0.85780769  0.81028765  0.80626623     0.07100
N2332       N  0.72607255  0.64444043  0.80784986    -0.46300
C2333       C  0.75109019  0.86400077  0.20134808     0.42700
N2334       N  0.76658431  0.82335857  0.18041074     0.01600
C2335       C  0.66181247  0.71021786  0.12149360    -0.06200
H2336       H  0.64190133  0.68650308  0.19570668     0.07100
C2337       C  0.78124802  0.64908829  0.19726831    -0.06600
Co2338     Co  0.70375657  0.79068583  0.15842583     0.74200
N2339       N  0.67548427  0.72644700  0.18110164    -0.25800
Co2340     Co  0.70602553  0.69764153  0.16032910     0.74100
C2341       C  0.74895342  0.62987417  0.20421516     0.42800
N2342       N  0.82553111  0.73357635  0.18367054     0.01200
N2343       N  0.73411090  0.67080901  0.18304897     0.01400
N2344       N  0.66140274  0.77073614  0.12016346    -0.46600
H2345       H  0.69101224  0.85378187  0.19495674     0.07100
N2346       N  0.67438349  0.76185886  0.18035796     0.01600
N2347       N  0.73683134  0.67112962  0.13902048     0.01400
C2348       C  0.75368247  0.64392245  0.11210615     0.43000
N2349       N  0.82412718  0.76886870  0.18267297    -0.25200
C2350       C  0.72209663  0.83608371  0.11988121    -0.06100
N2351       N  0.77957762  0.84860536  0.19261194    -0.46300
N2352       N  0.72470806  0.65451319  0.12263051    -0.46600
C2353       C  0.75514191  0.84909897  0.11007259     0.42800
N2354       N  0.67859987  0.75929200  0.13638655     0.01600
N2355       N  0.82548892  0.76539105  0.13857078    -0.25200
N2356       N  0.73108660  0.82168186  0.18025162    -0.25700
N2357       N  0.82681751  0.73015000  0.13939088     0.01300
H2358       H  0.84622957  0.80431421  0.11723978     0.07200
H2359       H  0.81339331  0.65239542  0.12027165     0.07200
N2360       N  0.67938048  0.72405087  0.13739591    -0.25800
N2361       N  0.76954720  0.67343123  0.18399472    -0.25400
N2362       N  0.76849419  0.81917200  0.13664889     0.01600
C2363       C  0.63082531  0.74655361  0.20015343     0.43000
C2364       C  0.84679701  0.78310407  0.19632214    -0.06700
N2365       N  0.77215407  0.67221964  0.13991780    -0.25400
H2366       H  0.80902280  0.64214061  0.19946275     0.07200
N2367       N  0.64811520  0.77487134  0.19156758    -0.46600
H2368       H  0.85408266  0.81122065  0.19755606     0.07200
C2369       C  0.85481548  0.74413464  0.11202073     0.42900
C2370       C  0.71879338  0.84650273  0.19314470    -0.06200
Co2371     Co  0.79663913  0.79457909  0.15966172     0.73800
N2372       N  0.84897911  0.72266815  0.19731368    -0.46300
C2373       C  0.64991307  0.74115410  0.11009739     0.43100
N2374       N  0.78264506  0.83756516  0.12142011    -0.46300
Co2375     Co  0.79909901  0.70183644  0.16197366     0.73900
C2376       C  0.78524758  0.65520648  0.12373836    -0.06700
C2377       C  0.64915416  0.71438550  0.19336405    -0.06200
N2378       N  0.73315298  0.81788549  0.13616173    -0.25800
N2379       N  0.72081118  0.64472486  0.19467976    -0.46500
H2380       H  0.65910341  0.68204519  0.11807273     0.07100
C2381       C  0.84294327  0.77673286  0.12196504    -0.06600
Cl2382     Cl  0.75132407  0.74620292  0.16038369    -0.49600
C2383       C  0.86284722  0.75249192  0.20622006     0.42900
H2384       H  0.69441165  0.83983167  0.11563076     0.07100
N2385       N  0.84436713  0.71631638  0.12382634    -0.46300
C2386       C  0.00649752  0.88540060  0.70221674     0.42700
N2387       N  0.98734723  0.92326254  0.68045512     0.01600
C2388       C  0.58669770  0.54063488  0.62077611    -0.06200
H2389       H  0.60462309  0.56359147  0.69614465     0.07100
C2390       C  0.96267799  0.59561481  0.69560225    -0.06600
Co2391     Co  0.54816600  0.95820993  0.65761750     0.74200
N2392       N  0.57315729  0.52320141  0.68054119    -0.25800
Co2393     Co  0.54174401  0.55067190  0.65956728     0.74100
C2394       C  0.99416256  0.61368902  0.70442446     0.42800
N2395       N  0.92241703  0.51045979  0.68150932     0.01200
N2396       N  0.51130888  0.57533589  0.68218889     0.01400
N2397       N  0.58858718  0.98018780  0.61860091    -0.46600
H2398       H  0.56540097  0.89884355  0.69459256     0.07100
N2399       N  0.57567640  0.98799289  0.67940503     0.01600
N2400       N  0.51057101  0.57589817  0.63775967     0.01400
C2401       C  0.99367078  0.60182889  0.61040969     0.43000
N2402       N  0.92540580  0.97523872  0.68141744    -0.25200
C2403       C  0.53302295  0.91064503  0.61997619    -0.06100
N2404       N  0.97657399  0.89808188  0.69338775    -0.46300
N2405       N  0.52263107  0.59315919  0.62152249    -0.46600
C2406       C  0.00105286  0.89543610  0.61026506     0.42800
N2407       N  0.57183082  0.99058754  0.63528692     0.01600
N2408       N  0.92624148  0.97646373  0.63735271    -0.25200
N2409       N  0.52270716  0.92694064  0.67980405    -0.25700
N2410       N  0.92370792  0.51160211  0.63747534     0.01300
H2411       H  0.91021602  0.93575694  0.61637277     0.07200
H2412       H  0.93410998  0.58976417  0.61749004     0.07200
N2413       N  0.57011709  0.52576367  0.63671570    -0.25800
N2414       N  0.97587951  0.57237469  0.68210049    -0.25400
N2415       N  0.98528704  0.92539099  0.63636503     0.01600
C2416       C  0.61805717  0.50366498  0.69976709     0.43000
C2417       C  0.90058178  0.96111077  0.69400618    -0.06700
N2418       N  0.97531312  0.57256313  0.63797082    -0.25400
H2419       H  0.93457100  0.60144088  0.69760768     0.07200
N2420       N  0.60187034  0.97538411  0.69065956    -0.46600
H2421       H  0.89560296  0.93275035  0.69602434     0.07200
C2422       C  0.89741337  0.49505979  0.60988960     0.42900
C2423       C  0.53709741  0.90415078  0.69306608    -0.06200
Co2424     Co  0.95557104  0.94954484  0.65910007     0.73800
N2425       N  0.89613362  0.52130161  0.69340635    -0.46300
C2426       C  0.59825755  0.51051268  0.60861878     0.43100
N2427       N  0.97246522  0.90574746  0.62121286    -0.46300
Co2428     Co  0.94880381  0.54224409  0.65991854     0.73900
C2429       C  0.96217862  0.58856209  0.62147792    -0.06700
C2430       C  0.59869297  0.53559414  0.69325062    -0.06200
N2431       N  0.52050992  0.92887409  0.63586367    -0.25800
N2432       N  0.52324256  0.59986740  0.69520243    -0.46500
H2433       H  0.58915660  0.56902044  0.61773800     0.07100
C2434       C  0.91035907  0.96356353  0.62063902    -0.06600
Cl2435     Cl  0.99857867  0.50015270  0.65933528    -0.49600
C2436       C  0.88063705  0.49178735  0.70178305     0.42900
H2437       H  0.56093903  0.90890212  0.61569792     0.07100
N2438       N  0.90664555  0.52376222  0.62140201    -0.46300
C2439       C  0.61694366  0.49751594  0.29915320     0.42700
N2440       N  0.57680511  0.51574763  0.31973924     0.01600
C2441       C  0.96241818  0.91929794  0.38298518    -0.06200
H2442       H  0.93485546  0.89806241  0.30816176     0.07100
C2443       C  0.90633181  0.53289465  0.30249160    -0.06600
Co2444     Co  0.54321963  0.95582763  0.34409466     0.74200
N2445       N  0.97697081  0.92849836  0.32317422    -0.25800
Co2446     Co  0.95066576  0.96188603  0.34360630     0.74100
C2447       C  0.88936138  0.49938375  0.29542440     0.42800
N2448       N  0.98943085  0.57749248  0.31555627     0.01200
N2449       N  0.92511790  0.98819970  0.32002191     0.01400
N2450       N  0.52280925  0.91509716  0.38346221    -0.46600
H2451       H  0.60516420  0.93839146  0.30729055     0.07100
N2452       N  0.51232012  0.92579619  0.32332755     0.01600
N2453       N  0.92633134  0.99614582  0.36435949     0.01400
C2454       C  0.90135597  0.51799061  0.39079773     0.43000
N2455       N  0.52478087  0.57580626  0.31626196    -0.25200
C2456       C  0.58856265  0.97642888  0.38205703    -0.06100
N2457       N  0.60204650  0.52695056  0.30702897    -0.46300
N2458       N  0.91057057  0.98704783  0.38167994    -0.46600
C2459       C  0.60206167  0.50979603  0.39111176     0.42800
N2460       N  0.51182030  0.93332320  0.36743670     0.01600
N2461       N  0.52339111  0.58068370  0.36025240    -0.25200
N2462       N  0.57422211  0.98039098  0.32100700    -0.25700
N2463       N  0.98817824  0.58304099  0.35985055     0.01300
H2464       H  0.56368689  0.59916330  0.38127276     0.07200
H2465       H  0.91012795  0.57572377  0.37972529     0.07200
N2466       N  0.97665588  0.93616315  0.36695992    -0.25800
N2467       N  0.92816840  0.52326296  0.31765363    -0.25400
N2468       N  0.57464765  0.52165524  0.36345721     0.01600
C2469       C  0.99410620  0.88519721  0.30247907     0.43000
C2470       C  0.53870255  0.59858562  0.30245507    -0.06700
N2471       N  0.92803349  0.53115447  0.36171859    -0.25400
H2472       H  0.90048275  0.56014916  0.29824306     0.07200
N2473       N  0.52365590  0.89975015  0.31135721    -0.46600
H2474       H  0.56688029  0.60561605  0.30093565     0.07200
C2475       C  0.00432993  0.61231153  0.38652109     0.42900
C2476       C  0.59844600  0.96641173  0.30825103    -0.06200
Co2477     Co  0.55039186  0.54883975  0.33981249     0.73800
N2478       N  0.97823712  0.60064691  0.30186127    -0.46300
C2479       C  0.99302620  0.90552185  0.39413446     0.43100
N2480       N  0.59259111  0.53655923  0.37864997    -0.46300
Co2481     Co  0.95787395  0.55428447  0.33843907     0.73900
C2482       C  0.91203781  0.54715232  0.37739427    -0.06700
C2483       C  0.96312245  0.90394107  0.31036962    -0.06200
N2484       N  0.57192567  0.98649159  0.36507168    -0.25800
N2485       N  0.90186682  0.97312165  0.30732993    -0.46500
H2486       H  0.93399839  0.91669576  0.38606237     0.07100
C2487       C  0.53605391  0.59859184  0.37639353    -0.06600
Cl2488     Cl  0.00060678  0.50509727  0.34118960    -0.49600
C2489       C  0.00770850  0.61497759  0.29276548     0.42900
H2490       H  0.59052803  0.94921009  0.38741748     0.07100
N2491       N  0.97567357  0.60150185  0.37539727    -0.46300
N2492       N  0.48330210  0.69130765  0.49967163    -0.36300
N2493       N  0.48162997  0.74802336  0.46978285    -0.56900
N2494       N  0.48078106  0.80262383  0.50099563    -0.36300
N2495       N  0.48414393  0.74608714  0.53087625    -0.56900
C2496       C  0.49263328  0.67286672  0.48290492     0.27300
C2497       C  0.49331057  0.67182108  0.51587373     0.27300
C2498       C  0.48902911  0.82291458  0.48463088     0.27300
C2499       C  0.49002695  0.82188468  0.51761202     0.27300
C2500       C  0.47674350  0.71918851  0.45764652     0.35900
C2501       C  0.47544127  0.77710963  0.45823514     0.35900
C2502       C  0.47894600  0.71654140  0.54236732     0.35900
C2503       C  0.47771148  0.77436411  0.54303327     0.35900
C2504       C  0.50803463  0.64083179  0.48849084    -0.21600
C2505       C  0.50837214  0.64013029  0.50938954    -0.21600
C2506       C  0.50280331  0.85587930  0.49091635    -0.21600
C2507       C  0.50356360  0.85517088  0.51179248    -0.21600
C2508       C  0.46696195  0.72998618  0.43837374    -0.22700
C2509       C  0.46623617  0.76664891  0.43872704    -0.22700
C2510       C  0.46886783  0.72608594  0.56184006    -0.22700
C2511       C  0.46802865  0.76273961  0.56224734    -0.22700
C2512       C  0.48621927  0.68391266  0.46281476    -0.18000
C2513       C  0.48746789  0.68149378  0.53625141    -0.18000
C2514       C  0.48513888  0.81038452  0.53781276    -0.18000
C2515       C  0.48269157  0.81282580  0.46430228    -0.18000
H2516       H  0.51788475  0.62011792  0.47855963     0.14900
H2517       H  0.51853975  0.61879433  0.51873358     0.14900
H2518       H  0.51138964  0.87813405  0.48147277     0.14900
H2519       H  0.51286945  0.87672643  0.52155802     0.14900
H2520       H  0.46238180  0.71328310  0.42517854     0.13200
H2521       H  0.46099133  0.78360349  0.42582836     0.13200
H2522       H  0.46378049  0.70854738  0.57461233     0.13200
H2523       H  0.46216049  0.77902695  0.57537383     0.13200
H2524       H  0.46780316  0.71412336  0.50006764     0.26400
H2525       H  0.46638208  0.77851946  0.50088712     0.26400
N2526       N  0.80681983  0.01325726  0.49977953    -0.36300
N2527       N  0.75179393  0.01431824  0.53098239    -0.56900
N2528       N  0.69576260  0.01560263  0.50049833    -0.36300
N2529       N  0.75084006  0.01865070  0.46941654    -0.56900
C2530       C  0.82744902  0.01819872  0.51637937     0.27300
C2531       C  0.82687119  0.02266731  0.48349208     0.27300
C2532       C  0.67609070  0.02278633  0.51715115     0.27300
C2533       C  0.67554429  0.02336936  0.48418880     0.27300
C2534       C  0.78045773  0.00612187  0.54246362     0.35900
C2535       C  0.72262087  0.00908982  0.54286861     0.35900
C2536       C  0.77959851  0.01249617  0.45753173     0.35900
C2537       C  0.72160941  0.01185771  0.45785517     0.35900
C2538       C  0.86141611  0.03015121  0.51061175    -0.21600
C2539       C  0.86096229  0.03328682  0.48980232    -0.21600
C2540       C  0.64261064  0.03476190  0.51137287    -0.21600
C2541       C  0.64224307  0.03505492  0.49048790    -0.21600
C2542       C  0.76940096  0.99617677  0.56176958    -0.22700
C2543       C  0.73282077  0.99790067  0.56198567    -0.22700
C2544       C  0.76858754  0.00170254  0.43838467    -0.22700
C2545       C  0.73185352  0.00135875  0.43857719    -0.22700
C2546       C  0.81666712  0.01037111  0.53640660    -0.18000
C2547       C  0.81560329  0.01969013  0.46311342    -0.18000
C2548       C  0.68586574  0.01792422  0.46387510    -0.18000
C2549       C  0.68701814  0.01675855  0.53730499    -0.18000
H2550       H  0.88411179  0.03603571  0.52036258     0.14900
H2551       H  0.88330660  0.04194449  0.48039934     0.14900
H2552       H  0.62061679  0.04209033  0.52116891     0.14900
H2553       H  0.61993396  0.04262832  0.48102970     0.14900
H2554       H  0.78587955  0.98901610  0.57456350     0.13200
H2555       H  0.71573049  0.99204332  0.57487865     0.13200
H2556       H  0.78529453  0.99525247  0.42551438     0.13200
H2557       H  0.71466626  0.99462764  0.42587103     0.13200
H2558       H  0.78184535  0.00038505  0.49947613     0.26400
H2559       H  0.71995575  0.00227257  0.50021666     0.26400
C2560       C  0.49988175  0.75579027  0.25102488    -0.02200
C2561       C  0.49732848  0.78980573  0.26497031     0.00100
C2562       C  0.49696351  0.78730861  0.28639223    -0.11700
C2563       C  0.49561964  0.81783952  0.29882189     0.02400
C2564       C  0.99358425  0.85210571  0.29013403     0.00000
C2565       C  0.99091678  0.85511654  0.26915555    -0.11700
C2566       C  0.99254726  0.82486664  0.25658528     0.02300
H2567       H  0.49685296  0.76155407  0.29379904     0.15200
H2568       H  0.98855727  0.88152630  0.26247471     0.15200
C2569       C  0.99183697  0.83163834  0.23505007     0.36900
C2570       C  0.49531923  0.81324328  0.32052799     0.36800
N2571       N  0.99145630  0.83805297  0.21790623    -0.43500
N2572       N  0.49483413  0.80943168  0.33791760    -0.43500
C2573       C  0.00713648  0.64941813  0.28142378     0.00100
C2574       C  0.53276961  0.67649326  0.28540535    -0.11700
C2575       C  0.53107720  0.71039931  0.27613080     0.02400
C2576       C  0.50241562  0.71873129  0.26263035     0.00000
C2577       C  0.97866378  0.68960579  0.25767342    -0.11700
C2578       C  0.98036007  0.65607102  0.26706377     0.02300
H2579       H  0.55401843  0.67144158  0.29617844     0.15200
H2580       H  0.95881676  0.69187029  0.24587136     0.15200
C2581       C  0.95504653  0.62825283  0.26095173     0.36900
C2582       C  0.55937807  0.73571831  0.28126275     0.36800
N2583       N  0.93487263  0.60595767  0.25599465    -0.43500
N2584       N  0.58233607  0.75516206  0.28616815    -0.43500
C2585       C  0.00203491  0.62717668  0.40732593     0.00100
C2586       C  0.97057400  0.62078016  0.41871352    -0.11700
C2587       C  0.46610756  0.63645128  0.43783350     0.02400
C2588       C  0.49328522  0.65910127  0.44574808     0.00000
C2589       C  0.52543153  0.66391506  0.43498955    -0.11700
C2590       C  0.53003347  0.64837361  0.41591134     0.02300
H2591       H  0.94909102  0.60408893  0.41252318     0.15200
H2592       H  0.54609778  0.68184587  0.44099365     0.15200
C2593       C  0.56251865  0.65740230  0.40497243     0.36900
C2594       C  0.93291180  0.63032359  0.44870576     0.36800
N2595       N  0.58862490  0.66500047  0.39634031    -0.43500
N2596       N  0.90641579  0.62534671  0.45752225    -0.43500
C2597       C  0.99169938  0.88384292  0.41313978     0.00100
C2598       C  0.95790544  0.87535259  0.42173709    -0.11700
C2599       C  0.95476229  0.85459574  0.43927207     0.02400
C2600       C  0.48560790  0.84038287  0.44814511     0.00000
C2601       C  0.51943644  0.84917351  0.44006133    -0.11700
C2602       C  0.52282762  0.87118891  0.42292751     0.02300
H2603       H  0.93352091  0.88475520  0.41484999     0.15200
H2604       H  0.54322325  0.83822288  0.44698346     0.15200
C2605       C  0.55859080  0.87979871  0.41581907     0.36900
C2606       C  0.91954921  0.84743391  0.44770642     0.36800
N2607       N  0.58747231  0.88653701  0.41036996    -0.43500
N2608       N  0.89142585  0.84179170  0.45459412    -0.43500
C2609       C  0.61974681  0.51468836  0.41104839     0.00100
C2610       C  0.61746444  0.98670484  0.42526794    -0.11700
C2611       C  0.63629726  0.98871672  0.44354910     0.02400
C2612       C  0.65840808  0.01881392  0.44766513     0.00000
C2613       C  0.65888251  0.54783735  0.43422173    -0.11700
C2614       C  0.63950687  0.54625430  0.41610468     0.02300
H2615       H  0.60135399  0.96290349  0.42205716     0.15200
H2616       H  0.67584286  0.57109261  0.43749038     0.15200
C2617       C  0.64190988  0.57681937  0.40274781     0.36900
C2618       C  0.63359157  0.95910425  0.45754765     0.36800
N2619       N  0.64382544  0.60146206  0.39214791    -0.43500
N2620       N  0.63114837  0.93555054  0.46888034    -0.43500
C2621       C  0.84234508  0.02373182  0.44647235     0.00100
C2622       C  0.86902245  0.99807298  0.44426904    -0.11700
C2623       C  0.89017559  0.99717070  0.42675262     0.02400
C2624       C  0.88354476  0.52111509  0.41071928     0.00000
C2625       C  0.85896737  0.54863984  0.41368619    -0.11700
C2626       C  0.83879354  0.55043865  0.43151238     0.02300
H2627       H  0.87283397  0.97832519  0.45607492     0.15200
H2628       H  0.85460345  0.56812151  0.40181501     0.15200
C2629       C  0.81369550  0.57915982  0.43387833     0.36900
C2630       C  0.92014573  0.97341825  0.42632371     0.36800
N2631       N  0.79357113  0.60214669  0.43582532    -0.43500
N2632       N  0.94494422  0.95530092  0.42654790    -0.43500
C2633       C  0.66011782  0.01828309  0.55384882     0.00100
C2634       C  0.63610191  0.98929310  0.55647417    -0.11700
C2635       C  0.61506230  0.98637473  0.57401034     0.02400
C2636       C  0.61824949  0.51275262  0.58930413     0.00000
C2637       C  0.64101628  0.54266533  0.58608571    -0.11700
C2638       C  0.66185374  0.54561563  0.56856679     0.02300
H2639       H  0.63468619  0.96834685  0.54508240     0.15200
H2640       H  0.64353947  0.56332722  0.59757922     0.15200
C2641       C  0.68608569  0.57607717  0.56642149     0.36900
C2642       C  0.58986891  0.95665264  0.57553222     0.36800
N2643       N  0.70562220  0.60039561  0.56477558    -0.43500
N2644       N  0.56954974  0.93285131  0.57631845    -0.43500
C2645       C  0.84417901  0.00722229  0.55244060     0.00100
C2646       C  0.85258755  0.97285588  0.55910817    -0.11700
C2647       C  0.86957737  0.96773088  0.57771795     0.02400
C2648       C  0.88075444  0.49783896  0.58946278     0.00000
C2649       C  0.87437558  0.53242316  0.58183502    -0.11700
C2650       C  0.85538589  0.53722785  0.56381501     0.02300
H2651       H  0.84272372  0.94979648  0.55059592     0.15200
H2652       H  0.88241690  0.55593126  0.59049771     0.15200
C2653       C  0.84457830  0.57280702  0.55822140     0.36900
C2654       C  0.87148915  0.93125294  0.58473757     0.36800
N2655       N  0.83508768  0.60104479  0.55373478    -0.43500
N2656       N  0.87195586  0.90165529  0.58995185    -0.43500
C2657       C  0.99466748  0.61786137  0.58979525     0.00100
C2658       C  0.96364951  0.61559004  0.57762101    -0.11700
C2659       C  0.96200379  0.63366114  0.55908740     0.02400
C2660       C  0.49157237  0.65445519  0.55247295     0.00000
C2661       C  0.52335882  0.65479848  0.56375010    -0.11700
C2662       C  0.52530178  0.63657791  0.58222152     0.02300
H2663       H  0.94021436  0.60052146  0.58273048     0.15200
H2664       H  0.54606600  0.67103027  0.55861639     0.15200
C2665       C  0.55845909  0.63953396  0.59343803     0.36900
C2666       C  0.92918505  0.63246391  0.54750492     0.36800
N2667       N  0.58520470  0.64210067  0.60226603    -0.43500
N2668       N  0.90333146  0.63205214  0.53782085    -0.43500
C2669       C  0.99875846  0.87540308  0.59100716     0.00100
C2670       C  0.96954614  0.88124193  0.57805354    -0.11700
C2671       C  0.96550462  0.86173935  0.56002933     0.02400
C2672       C  0.49112342  0.83607636  0.55474321     0.00000
C2673       C  0.52083698  0.83101152  0.56737880    -0.11700
C2674       C  0.52460037  0.84998504  0.58552475     0.02300
H2675       H  0.94961158  0.90077053  0.58214522     0.15200
H2676       H  0.54012139  0.81066789  0.56353415     0.15200
C2677       C  0.55340576  0.84045557  0.59897308     0.36900
C2678       C  0.93418280  0.86731470  0.54766809     0.36800
N2679       N  0.57629368  0.83250462  0.60981431    -0.43500
N2680       N  0.90907586  0.87178549  0.53775364    -0.43500
C2681       C  0.59718146  0.74928547  0.21214832     0.00100
C2682       C  0.59441839  0.77769267  0.22576136    -0.11700
C2683       C  0.56450170  0.78141227  0.23846597     0.02400
C2684       C  0.53445268  0.75666942  0.23713398     0.00000
C2685       C  0.53810739  0.72803307  0.22314279    -0.11700
C2686       C  0.56830239  0.72453254  0.21062583     0.02300
H2687       H  0.61686485  0.79655978  0.22710550     0.15200
H2688       H  0.51664289  0.70814970  0.22176638     0.15200
C2689       C  0.56784770  0.69632457  0.19564363     0.36900
C2690       C  0.56873708  0.80944401  0.25339009     0.36800
N2691       N  0.56710213  0.67385911  0.18354192    -0.43500
N2692       N  0.57374683  0.83206728  0.26512664    -0.43500
C2693       C  0.89757783  0.75371361  0.21684112     0.00100
C2694       C  0.89751893  0.75264671  0.23789534    -0.11700
C2695       C  0.92960416  0.75408950  0.24886918     0.02400
C2696       C  0.96364685  0.75627117  0.23871148     0.00000
C2697       C  0.96277392  0.75900325  0.21727603    -0.11700
C2698       C  0.93038303  0.75735032  0.20644664     0.02300
H2699       H  0.87206806  0.75044735  0.24586527     0.15200
H2700       H  0.98708071  0.76324648  0.20862964     0.15200
C2701       C  0.93138204  0.75945461  0.18460348     0.36900
C2702       C  0.92611427  0.75147581  0.27060908     0.36800
N2703       N  0.93201215  0.76105923  0.16710237    -0.43500
N2704       N  0.92235792  0.74912735  0.28796263    -0.43500
C2705       C  0.75465029  0.59216978  0.05400049     0.00100
C2706       C  0.72184383  0.59794753  0.06367100    -0.11700
C2707       C  0.72061737  0.61534081  0.08238899     0.02400
C2708       C  0.75281186  0.62831763  0.09143768     0.00000
C2709       C  0.78528700  0.62508279  0.08071428    -0.11700
C2710       C  0.78646738  0.60676520  0.06226467     0.02300
H2711       H  0.69745576  0.58620885  0.05732766     0.15200
H2712       H  0.81017653  0.63556684  0.08699877     0.15200
C2713       C  0.82078024  0.60147114  0.05263507     0.36900
C2714       C  0.68625145  0.61656777  0.09243954     0.36800
N2715       N  0.84827472  0.59723378  0.04491111    -0.43500
N2716       N  0.65852965  0.61684261  0.10034830    -0.43500
C2717       C  0.76399974  0.90729016  0.05392327     0.00100
C2718       C  0.79460037  0.90255381  0.06579817    -0.11700
C2719       C  0.79243853  0.88391523  0.08413973     0.02400
C2720       C  0.75911645  0.86870584  0.09059609     0.00000
C2721       C  0.72885332  0.87237821  0.07810874    -0.11700
C2722       C  0.73102307  0.89175257  0.06002158     0.02300
H2723       H  0.81975064  0.91536836  0.06129262     0.15200
H2724       H  0.70315100  0.86088096  0.08260559     0.15200
C2725       C  0.69867020  0.89762320  0.04856710     0.36900
C2726       C  0.82466796  0.88222320  0.09621128     0.36800
N2727       N  0.67297079  0.90287832  0.03929788    -0.43500
N2728       N  0.85059556  0.88093481  0.10580019    -0.43500
C2729       C  0.74806823  0.58899832  0.94773197     0.00100
C2730       C  0.77961679  0.58803861  0.93626231    -0.11700
C2731       C  0.78186425  0.60476377  0.91745144     0.02400
C2732       C  0.75253117  0.62462771  0.91022147     0.00000
C2733       C  0.72144499  0.62693370  0.92223073    -0.11700
C2734       C  0.71888362  0.60897805  0.94081565     0.02300
H2735       H  0.80165006  0.57176264  0.94141072     0.15200
H2736       H  0.69879447  0.64210349  0.91689799     0.15200
C2737       C  0.68560212  0.60991373  0.95198201     0.36900
C2738       C  0.81322042  0.59771584  0.90531941     0.36800
N2739       N  0.65879622  0.61074704  0.96082760    -0.43500
N2740       N  0.83838055  0.59143364  0.89574688    -0.43500
C2741       C  0.75707822  0.90657946  0.94819510     0.00100
C2742       C  0.72371094  0.89167781  0.94289614    -0.11700
C2743       C  0.71912220  0.87261393  0.92482433     0.02400
C2744       C  0.74907992  0.86661633  0.91200043     0.00000
C2745       C  0.78303964  0.87985445  0.91817848    -0.11700
C2746       C  0.78710106  0.90026047  0.93585428     0.02300
H2747       H  0.70053345  0.89732707  0.95227062     0.15200
H2748       H  0.80642760  0.87563783  0.90874189     0.15200
C2749       C  0.82186812  0.91598962  0.94042775     0.36900
C2750       C  0.68277988  0.86221092  0.91978485     0.36800
N2751       N  0.84982012  0.92859091  0.94389968    -0.43500
N2752       N  0.65301368  0.85521526  0.91630695    -0.43500
C2753       C  0.99825555  0.71539671  0.73727975     0.00100
C2754       C  0.52218838  0.68696259  0.74148906    -0.11700
C2755       C  0.52170259  0.65461572  0.73074767     0.02400
C2756       C  0.99507207  0.64770939  0.71620863     0.00000
C2757       C  0.96909740  0.67371672  0.71292872    -0.11700
C2758       C  0.97018183  0.70689898  0.72316002     0.02300
H2759       H  0.54153438  0.68875982  0.75359552     0.15200
H2760       H  0.94799964  0.66838268  0.70196426     0.15200
C2761       C  0.94156537  0.73095237  0.71843422     0.36900
C2762       C  0.54838676  0.62831974  0.73554345     0.36800
N2763       N  0.91803426  0.74890195  0.71370594    -0.43500
N2764       N  0.56989887  0.60741908  0.73936231    -0.43500
C2765       C  0.00540207  0.78673686  0.73670704     0.00100
C2766       C  0.00504872  0.78603717  0.71525518    -0.11700
C2767       C  0.00519692  0.81773612  0.70377428     0.02400
C2768       C  0.00792553  0.85126358  0.71346421     0.00000
C2769       C  0.51187987  0.85253419  0.73443021    -0.11700
C2770       C  0.51045032  0.82119701  0.74609927     0.02300
H2771       H  0.00441122  0.76094468  0.70712848     0.15200
H2772       H  0.51449723  0.87841714  0.74185719     0.15200
C2773       C  0.51087792  0.82621467  0.76780288     0.36900
C2774       C  0.00220166  0.81524356  0.68201947     0.36800
N2775       N  0.51096229  0.83119288  0.78510882    -0.43500
N2776       N  0.99965745  0.81327697  0.66458628    -0.43500
C2777       C  0.53600310  0.75163400  0.76318684     0.00100
C2778       C  0.53513373  0.75188917  0.78468645    -0.11700
C2779       C  0.56651521  0.74888722  0.79637673     0.02400
C2780       C  0.60019014  0.74589138  0.78688492     0.00000
C2781       C  0.60196469  0.74747964  0.76581791    -0.11700
C2782       C  0.57092972  0.75080688  0.75400965     0.02300
H2783       H  0.51026012  0.75530062  0.79277301     0.15200
H2784       H  0.62798412  0.74615267  0.75847535     0.15200
C2785       C  0.57619377  0.75130617  0.73232874     0.36900
C2786       C  0.56346151  0.74913664  0.81818042     0.36800
N2787       N  0.58111495  0.75149411  0.71501855    -0.43500
N2788       N  0.56086378  0.74936638  0.83564801    -0.43500
C2789       C  0.90193530  0.74983567  0.78772369     0.00100
C2790       C  0.90694241  0.77717006  0.77362728    -0.11700
C2791       C  0.93665958  0.77845537  0.76064991     0.02400
C2792       C  0.96487006  0.75273001  0.76249738     0.00000
C2793       C  0.95802696  0.72400517  0.77608530    -0.11700
C2794       C  0.92759800  0.72255258  0.78868979     0.02300
H2795       H  0.88633633  0.79717875  0.77210535     0.15200
H2796       H  0.97738177  0.70278562  0.77728743     0.15200
C2797       C  0.92439078  0.69341796  0.80298641     0.36900
C2798       C  0.93363633  0.80484845  0.74479752     0.36800
N2799       N  0.92210760  0.67004331  0.81445228    -0.43500
N2800       N  0.92938032  0.82605523  0.73228504    -0.43500
C2801       C  0.78109408  0.49794662  0.73643447     0.00100
C2802       C  0.78899026  0.96683334  0.72507159    -0.11700
C2803       C  0.82076400  0.96368068  0.71381499     0.02400
C2804       C  0.84574337  0.49263909  0.71298132     0.00000
C2805       C  0.83609500  0.52507285  0.72201738    -0.11700
C2806       C  0.80387783  0.52860351  0.73278771     0.02300
H2807       H  0.77070164  0.94394775  0.72571960     0.15200
H2808       H  0.85356345  0.54846609  0.72019725     0.15200
C2809       C  0.79405997  0.56498321  0.73735500     0.36900
C2810       C  0.82566945  0.93080700  0.70273034     0.36800
N2811       N  0.78670408  0.59446299  0.74052142    -0.43500
N2812       N  0.82881216  0.90428023  0.69385592    -0.43500
C2813       C  0.65288785  0.50082215  0.71055369     0.00100
C2814       C  0.66036020  0.96848226  0.72034846    -0.11700
C2815       C  0.69180429  0.96429739  0.73167845     0.02400
C2816       C  0.71525812  0.49436555  0.73515512     0.00000
C2817       C  0.71056073  0.52423935  0.72226217    -0.11700
C2818       C  0.67975095  0.52794616  0.71035657     0.02300
H2819       H  0.64167807  0.94595072  0.71889973     0.15200
H2820       H  0.72977127  0.54630299  0.72265288     0.15200
C2821       C  0.67695822  0.55977541  0.69812754     0.36900
C2822       C  0.70034303  0.92798389  0.73711198     0.36800
N2823       N  0.67520169  0.58537283  0.68832594    -0.43500
N2824       N  0.70680716  0.89857328  0.74102614    -0.43500
C2825       C  0.74540957  0.52979634  0.76512167     0.00100
C2826       C  0.77588880  0.53647487  0.77749098    -0.11700
C2827       C  0.78055995  0.56840647  0.78854742     0.02400
C2828       C  0.75331769  0.59423153  0.78857107     0.00000
C2829       C  0.72137379  0.58611749  0.77833012    -0.11700
C2830       C  0.71660437  0.55455883  0.76710283     0.02300
H2831       H  0.79762042  0.51756865  0.77734539     0.15200
H2832       H  0.69952700  0.60492082  0.77906864     0.15200
C2833       C  0.68071832  0.54913253  0.75933870     0.36900
C2834       C  0.81382219  0.57346343  0.79942283     0.36800
N2835       N  0.65143657  0.54614970  0.75362304    -0.43500
N2836       N  0.84084326  0.57695159  0.80790178    -0.43500
C2837       C  0.74995394  0.89834648  0.78881845     0.00100
C2838       C  0.71978948  0.92016751  0.78910526    -0.11700
C2839       C  0.71886713  0.95248581  0.77822779     0.02400
C2840       C  0.74832007  0.96334929  0.76559184     0.00000
C2841       C  0.78019949  0.94348314  0.76791694    -0.11700
C2842       C  0.78089150  0.91105399  0.77861511     0.02300
H2843       H  0.69638381  0.91190300  0.79781444     0.15200
H2844       H  0.80523293  0.95278430  0.76131341     0.15200
C2845       C  0.81360095  0.89089774  0.77819556     0.36900
C2846       C  0.68594868  0.97189620  0.77982357     0.36800
N2847       N  0.83980819  0.87476011  0.77775806    -0.43500
N2848       N  0.65847371  0.98527052  0.78206704    -0.43500
C2849       C  0.59381850  0.74622290  0.05356230     0.00100
C2850       C  0.58892001  0.71626833  0.06607620    -0.11700
C2851       C  0.60690884  0.71388342  0.08451635     0.02400
C2852       C  0.63146163  0.74139509  0.09032638     0.00000
C2853       C  0.63769108  0.77053385  0.07720972    -0.11700
C2854       C  0.61892373  0.77319079  0.05894254     0.02300
H2855       H  0.56890306  0.69596649  0.06206022     0.15200
H2856       H  0.65655768  0.79172872  0.08146464     0.15200
C2857       C  0.62416907  0.80463083  0.04650225     0.36900
C2858       C  0.59650804  0.68489778  0.09788238     0.36800
N2859       N  0.62813193  0.82973939  0.03642138    -0.43500
N2860       N  0.58755812  0.66174763  0.10851274    -0.43500
C2861       C  0.91245211  0.74098690  0.05576180     0.00100
C2862       C  0.88445359  0.76505163  0.05821245    -0.11700
C2863       C  0.86359296  0.76462280  0.07582890     0.02400
C2864       C  0.87178059  0.74100498  0.09181292     0.00000
C2865       C  0.89772466  0.71484064  0.08862080    -0.11700
C2866       C  0.91775815  0.71438824  0.07063616     0.02300
H2867       H  0.87935042  0.78466080  0.04650001     0.15200
H2868       H  0.90327916  0.69559793  0.10045138     0.15200
C2869       C  0.94439890  0.68717869  0.06795092     0.36900
C2870       C  0.83246158  0.78684691  0.07645409     0.36800
N2871       N  0.96575962  0.66542903  0.06567230    -0.43500
N2872       N  0.80684409  0.80381265  0.07658108    -0.43500
C2873       C  0.62913963  0.73987600  0.91044329     0.00100
C2874       C  0.63814171  0.76668178  0.92457986    -0.11700
C2875       C  0.61912112  0.76963695  0.94279222     0.02400
C2876       C  0.59072201  0.74527007  0.94698638     0.00000
C2877       C  0.58343864  0.71699549  0.93351322    -0.11700
C2878       C  0.60211980  0.71424418  0.91526956     0.02300
H2879       H  0.65986800  0.78546877  0.92126867     0.15200
H2880       H  0.56163171  0.69818317  0.93679749     0.15200
C2881       C  0.59103826  0.68648331  0.90123761     0.36900
C2882       C  0.62832026  0.79841905  0.95658822     0.36800
N2883       N  0.58203941  0.66424056  0.89000933    -0.43500
N2884       N  0.63580494  0.82131011  0.96774088    -0.43500
C2885       C  0.87006030  0.74908141  0.91219460     0.00100
C2886       C  0.86867232  0.77903011  0.92514301    -0.11700
C2887       C  0.88769963  0.77990108  0.94342316     0.02400
C2888       C  0.90841893  0.75039834  0.94903107     0.00000
C2889       C  0.90828937  0.71974820  0.93676524    -0.11700
C2890       C  0.88951485  0.71883089  0.91844409     0.02300
H2891       H  0.85334398  0.80219995  0.92085314     0.15200
H2892       H  0.92468747  0.69724627  0.94099554     0.15200
C2893       C  0.89298857  0.68745276  0.90583327     0.36900
C2894       C  0.88703862  0.81192944  0.95569879     0.36800
N2895       N  0.89600633  0.66234685  0.89571366    -0.43500
N2896       N  0.88643030  0.83760618  0.96552994    -0.43500
C2897       C  0.78632995  0.49207821  0.26497372     0.00100
C2898       C  0.81923273  0.49413555  0.25399766    -0.11700
C2899       C  0.85270554  0.49636851  0.26357651     0.02400
C2900       C  0.85463705  0.49621983  0.28474067     0.00000
C2901       C  0.82309908  0.99127925  0.29595572    -0.11700
C2902       C  0.78929403  0.98845453  0.28655095     0.02300
H2903       H  0.81872974  0.49571614  0.23761830     0.15200
H2904       H  0.82499072  0.98949191  0.31232946     0.15200
C2905       C  0.75988734  0.98041115  0.30008781     0.36900
C2906       C  0.88483887  0.49847032  0.25134931     0.36800
N2907       N  0.73741389  0.97374440  0.31169631    -0.43500
N2908       N  0.91065758  0.49983366  0.24159500    -0.43500
C2909       C  0.71441125  0.49546595  0.26323523     0.00100
C2910       C  0.70967317  0.52199044  0.27823439    -0.11700
C2911       C  0.67873919  0.52283784  0.29035785     0.02400
C2912       C  0.65033150  0.49799196  0.28696520     0.00000
C2913       C  0.65264707  0.97453316  0.27063236    -0.11700
C2914       C  0.68291919  0.97451761  0.25805373     0.02300
H2915       H  0.73135524  0.54085313  0.28145507     0.15200
H2916       H  0.62964080  0.95742508  0.26698271     0.15200
C2917       C  0.67792556  0.95582656  0.23905169     0.36900
C2918       C  0.67815865  0.54784699  0.30705120     0.36800
N2919       N  0.67299607  0.94090454  0.22389605    -0.43500
N2920       N  0.67799863  0.56772686  0.32051493    -0.43500
C2921       C  0.74802259  0.59600044  0.21617083     0.00100
C2922       C  0.77095686  0.59364830  0.23275788    -0.11700
C2923       C  0.77221051  0.56277866  0.24480511     0.02400
C2924       C  0.75183270  0.53097559  0.23945126     0.00000
C2925       C  0.72715644  0.53482557  0.22328409    -0.11700
C2926       C  0.72548638  0.56630006  0.21159659     0.02300
H2927       H  0.78724977  0.61698734  0.23686055     0.15200
H2928       H  0.70941025  0.51261344  0.21936219     0.15200
C2929       C  0.70159896  0.56659658  0.19441313     0.36900
C2930       C  0.79247662  0.56738906  0.26329471     0.36800
N2931       N  0.68255933  0.56656502  0.18057720    -0.43500
N2932       N  0.80890718  0.57244400  0.27792587    -0.43500
C2933       C  0.75374011  0.95988326  0.23829697     0.00100
C2934       C  0.76207220  0.96160065  0.21734264    -0.11700
C2935       C  0.76123097  0.93083477  0.20502611     0.02400
C2936       C  0.75326923  0.89708377  0.21354602     0.00000
C2937       C  0.74821292  0.89432854  0.23434406    -0.11700
C2938       C  0.74903918  0.92471021  0.24678264     0.02300
H2939       H  0.76947237  0.98680301  0.21030505     0.15200
H2940       H  0.74299850  0.86807841  0.24092200     0.15200
C2941       C  0.74134700  0.91803312  0.26786057     0.36900
C2942       C  0.76781897  0.93459056  0.18357412     0.36800
N2943       N  0.73406009  0.91028968  0.28434116    -0.43500
N2944       N  0.77294741  0.93750955  0.16635946    -0.43500
loop_ 
_geom_bond_atom_site_label_1 
_geom_bond_atom_site_label_2 
_geom_bond_distance 
_geom_bond_site_symmetry_2 
_ccdc_geom_bond_type 
C1          C725   1.573       .  S
C1         C1425   1.574       .  S
C1         C1437   1.570       .  S
C1         C1452   1.585       .  S
N2            C7   1.353       .  A
N2            C6   1.351   1_554  A
N2           H34   1.039       .  S
N3           C11   1.351       .  A
N3         C1482   1.351   1_455  A
N4            C9   1.349       .  A
N4            C8   1.350   1_554  A
N4           H35   1.040       .  S
N5           C13   1.349       .  A
N5         C1484   1.350   1_455  A
C6           C14   1.386       .  A
C6           C22   1.412       .  A
C7           C23   1.414       .  A
C7           C15   1.387       .  A
C8           C16   1.387       .  A
C8           C25   1.410       .  A
C9           C24   1.408       .  A
C9           C17   1.386       .  A
C10        N1475   1.351       .  A
C10          C22   1.413       .  A
C10          C18   1.387       .  A
C11          C25   1.413       .  A
C11          C19   1.386       .  A
C12        N1477   1.350       .  A
C12          C20   1.386       .  A
C12          C23   1.410       .  A
C13          C21   1.387       .  A
C13          C24   1.409       .  A
C14          C15   1.380   1_556  A
C14          H26   1.082       .  S
C15          H27   1.082       .  S
C16          C17   1.378   1_556  A
C16          H28   1.082       .  S
C17          H29   1.082       .  S
C18        C1491   1.369       .  A
C18          H30   1.082       .  S
C19        C1490   1.369   1_455  A
C19          H31   1.083       .  S
C20        C1493   1.369       .  A
C20          H32   1.082       .  S
C21        C1492   1.369   1_455  A
C21          H33   1.083       .  S
C22         C680   1.484       .  S
C23         C653   1.489       .  S
C24         C641   1.479       .  S
C25         C668   1.484       .  S
C36         C593   1.580       .  S
C36         C608   1.565       .  S
C36         C617   1.571   1_565  S
C36        C1368   1.581       .  S
C37         C569   1.585       .  S
C37        C2017   1.590   1_455  S
C37        C2029   1.568       .  S
C37        C2056   1.581   1_455  S
N38          C43   1.351   1_554  A
N38          C42   1.350       .  A
N38          H70   1.035       .  S
N39          C47   1.352       .  A
N39         C782   1.352       .  A
N40          C45   1.352   1_554  A
N40          C44   1.350       .  A
N40          H71   1.032       .  S
N41          C49   1.351       .  A
N41         C784   1.350       .  A
C42          C50   1.387       .  A
C42          C58   1.410       .  A
C43          C59   1.411       .  A
C43          C51   1.387       .  A
C44          C52   1.387       .  A
C44          C61   1.413       .  A
C45          C60   1.414       .  A
C45          C53   1.387       .  A
C46         N775   1.352   1_545  A
C46          C58   1.414       .  A
C46          C54   1.387       .  A
C47          C61   1.415       .  A
C47          C55   1.387       .  A
C48         N777   1.350   1_545  A
C48          C56   1.386       .  A
C48          C59   1.411       .  A
C49          C57   1.388       .  A
C49          C60   1.414       .  A
C50          C51   1.377   1_554  A
C50          H62   1.082       .  S
C51          H63   1.082       .  S
C52          C53   1.379   1_554  A
C52          H64   1.082       .  S
C53          H65   1.082       .  S
C54         C791   1.364   1_545  A
C54          H66   1.082       .  S
C55         C790   1.364       .  A
C55          H67   1.082       .  S
C56         C793   1.366   1_545  A
C56          H68   1.083       .  S
C57         C792   1.366       .  A
C57          H69   1.082       .  S
C58         C497   1.479       .  S
C59         C521   1.480       .  S
C60         C533   1.483       .  S
C61         C509   1.482       .  S
C72          N90   1.350       .  A
C72         C109   1.460       .  S
C72         C677   1.484       .  S
N73          N90   1.323       .  A
N73          N95   1.317       .  A
N73        Co110   2.085       .  S
C74          N99   1.342       .  A
C74         H119   1.081       .  S
C74         C112   1.467       .  S
H75         C116   1.076       .  S
C76         N100   1.337       .  A
C76         H105   1.081       .  S
C76          C80   1.453       .  S
Co77         N95   2.074       .  S
Co77         N85   2.086       .  S
Co77        N117   2.104       .  S
Co77         N93   2.091       .  S
Co77       Cl121   2.455       .  S
N78         C116   1.338       .  A
N78          N85   1.315       .  A
N78         Co79   2.071       .  S
Co79         N82   2.087       .  S
Co79         N99   2.094       .  S
Co79         N86   2.087       .  S
Co79       Cl121   2.449       .  S
C80         N118   1.351       .  A
C80         C665   1.474       .  S
N81          N88   1.317       .  A
N81         N111   1.326       .  A
N81        Co114   2.094       .  S
N82         N100   1.318       .  A
N82         N118   1.325       .  A
N83         C112   1.352       .  A
N83          N93   1.325       .  A
H84         C109   1.081       .  S
N85         N106   1.324       .  A
N86         N104   1.324       .  A
N86          N91   1.325       .  A
C87          N91   1.347       .  A
C87         C115   1.467       .  S
C87         C572   1.484       .  S
N88         C103   1.333       .  A
N88        Co110   2.057       .  S
C89         N117   1.343       .  A
C89         H123   1.082       .  S
C89          C92   1.468       .  S
C92         N113   1.347       .  A
C92         C581   1.487       .  S
N93          N99   1.322       .  A
N94         C120   1.342       .  A
N94          N96   1.322       .  A
N94        Co110   2.089       .  S
N95         C109   1.340       .  A
N96         N124   1.323       .  A
N96        Co114   2.090       .  S
H97         C120   1.079       .  S
H98         C115   1.082       .  S
N100       Co114   2.067       .  S
N101        N113   1.324       .  A
N101        N117   1.322       .  A
N101       Co110   2.072       .  S
C102        N106   1.353       .  A
C102        C116   1.464       .  S
C102        C536   1.491       .  S
C103        H107   1.079       .  S
C103        C122   1.453       .  S
N104        C115   1.348       .  A
N104       Co114   2.112       .  S
C108        N124   1.352       .  A
C108        C120   1.465       .  S
C108        C620   1.491       .  S
Co110      Cl121   2.448       .  S
N111        C122   1.353       .  A
C112        C629   1.493       .  S
Co114      Cl121   2.457       .  S
C122        C524   1.479       .  S
C125        N143   1.346       .  A
C125        C162   1.462       .  S
C125        C728   1.474       .  S
N126        N143   1.324       .  A
N126        N148   1.323       .  A
N126       Co163   2.079       .  S
C127        N152   1.336       .  A
C127        H172   1.078       .  S
C127        C165   1.455       .  S
H128        C169   1.081       .  S
C129        N153   1.342       .  A
C129        H158   1.082       .  S
C129        C133   1.462       .  S
Co130       N148   2.099       .  S
Co130       N138   2.099       .  S
Co130       N170   2.085       .  S
Co130       N146   2.080       .  S
Co130      Cl174   2.455       .  S
N131        C169   1.342       .  A
N131        N138   1.324       .  A
N131       Co132   2.091       .  S
Co132       N135   2.097       .  S
Co132       N152   2.072       .  S
Co132       N139   2.077       .  S
Co132      Cl174   2.452       .  S
C133        N171   1.352       .  A
C133        C713   1.491       .  S
N134        N141   1.321       .  A
N134        N164   1.326       .  A
N134       Co167   2.093       .  S
N135        N153   1.323       .  A
N135        N171   1.328       .  A
N136        C165   1.351       .  A
N136        N146   1.324       .  A
H137        C162   1.082       .  S
N138        N159   1.326       .  A
N139        N157   1.317       .  A
N139        N144   1.322       .  A
C140        N144   1.348       .  A
C140        C168   1.460       .  S
C140        C500   1.483       .  S
N141        C156   1.338       .  A
N141       Co163   2.079       .  S
C142        N170   1.342       .  A
C142        H176   1.081       .  S
C142        C145   1.465       .  S
C145        N166   1.348       .  A
C145        C512   1.486       .  S
N146        N152   1.318       .  A
N147        C173   1.339       .  A
N147        N149   1.318       .  A
N147       Co163   2.078       .  S
N148        C162   1.344       .  A
N149        N177   1.327       .  A
N149       Co167   2.089       .  S
H150        C173   1.080       .  S
H151        C168   1.080       .  S
N153       Co167   2.099       .  S
N154        N166   1.321       .  A
N154        N170   1.317       .  A
N154       Co163   2.073       .  S
C155        N159   1.352       .  A
C155        C169   1.462       .  S
C155        C473   1.487       .  S
C156        H160   1.082       .  S
C156        C175   1.456       .  S
N157        C168   1.338       .  A
N157       Co167   2.075       .  S
C161        N177   1.350       .  A
C161        C173   1.458       .  S
C161        C656   1.481       .  S
Co163      Cl174   2.448       .  S
N164        C175   1.352       .  A
C165        C644   1.476       .  S
Co167      Cl174   2.457       .  S
C175        C485   1.472       .  S
C178        N196   1.353       .  A
C178        C560   1.477       .  S
C178       C1687   1.457       .  S
N179        N196   1.326       .  A
N179       N1673   1.322       .  A
N179       Co216   2.099       .  S
C180        N205   1.335       .  A
C180        H225   1.080       .  S
C180        C218   1.452       .  S
H181        C222   1.080       .  S
C182        N206   1.343       .  A
C182        H211   1.082       .  S
C182        C186   1.463       .  S
Co183       N201   2.089       .  S
Co183       N191   2.076       .  S
Co183       N223   2.069       .  S
Co183       N199   2.090       .  S
Co183     Cl2435   2.447   1_455  S
N184        C222   1.344       .  A
N184        N927   1.321   1_545  A
N184       Co185   2.096       .  S
Co185       N188   2.097       .  S
Co185       N205   2.071       .  S
Co185       N192   2.088       .  S
Co185     Cl1699   2.454   1_455  S
C186       N1696   1.353       .  A
C186        C548   1.488       .  S
N187        N217   1.324       .  A
N187        N930   1.321   1_545  A
N187       Co220   2.088       .  S
N188        N224   1.326       .  A
N188       N1678   1.322   1_455  A
N189        C954   1.353       .  A
N189        N199   1.327       .  A
H190        C215   1.082       .  S
N191        N212   1.322       .  A
N191        N920   1.321       .  A
N192        N197   1.325       .  A
N192       N1682   1.317   1_455  A
C193       N1669   1.350       .  A
C193        C221   1.460       .  S
C193        C449   1.488       .  S
N194        C209   1.343       .  A
N194        N923   1.321       .  A
N194       Co216   2.095       .  S
C195        N223   1.338       .  A
C195        H229   1.081       .  S
C195       C1670   1.458       .  S
N197       C1665   1.350   1_455  A
C198        N219   1.348       .  A
C198        C461   1.476       .  S
C198       C1667   1.458       .  S
N199        N941   1.319       .  A
N200        C226   1.338       .  A
N200        N938   1.316       .  A
N200       Co216   2.077       .  S
N201        C215   1.341       .  A
N201       N1651   1.322   1_455  A
N202        N230   1.323       .  A
N202        N936   1.316   1_545  A
N202       Co220   2.082       .  S
H203        C226   1.075       .  S
H204        C221   1.080       .  S
N205        N935   1.319   1_545  A
N206       N1660   1.322       .  A
N206       Co220   2.093       .  S
N207        N219   1.324       .  A
N207       N1695   1.316       .  A
N207       Co216   2.079       .  S
C208        N948   1.347   1_545  A
C208        C222   1.470       .  S
C208        C605   1.487       .  S
C209        H213   1.079       .  S
C209        C964   1.469       .  S
N210        C221   1.340       .  A
N210       N1664   1.317       .  A
N210       Co220   2.077       .  S
N212        C944   1.347       .  A
C214        N230   1.352   1_565  A
C214        C440   1.490       .  S
C214        C962   1.464       .  S
C215       C1650   1.457       .  S
Co216      Cl963   2.453       .  S
N217        C228   1.352   1_545  A
C218        N925   1.353   1_545  A
C218        C428   1.478       .  S
Co220      Cl227   2.454       .  S
N223       N1679   1.316   1_455  A
N224       C1658   1.353   1_455  A
C226        C950   1.464       .  S
Cl227     Co2391   2.447   1_545  S
Cl227     Co1657   2.454       .  S
Cl227      Co952   2.453   1_545  S
C228        C596   1.496       .  S
C228        C945   1.469       .  S
C231        N249   1.344   1_565  A
C231        C704   1.480       .  S
C231       C1004   1.467       .  S
N232        N249   1.322       .  A
N232        N990   1.324   1_545  A
N232       Co269   2.071       .  S
C233        N258   1.336       .  A
C233        H278   1.080       .  S
C233        C271   1.460       .  S
H234        C275   1.081       .  S
C235        N259   1.344       .  A
C235        H264   1.082       .  S
C235        C239   1.466   1_545  S
Co236       N254   2.111       .  S
Co236       N244   2.100       .  S
Co236       N276   2.079       .  S
Co236       N252   2.100       .  S
Co236     Cl2488   2.460       .  S
N237        C275   1.342       .  A
N237       N1716   1.323       .  A
N237       Co238   2.091       .  S
Co238       N241   2.083       .  S
Co238       N258   2.069       .  S
Co238       N245   2.091       .  S
Co238     Cl1016   2.443       .  S
C239       N1013   1.348       .  A
C239        C692   1.477       .  S
N240        N270   1.325       .  A
N240       N1719   1.321       .  A
N240       Co273   2.091       .  S
N241        N277   1.323       .  A
N241        N995   1.321       .  A
N242       C1743   1.356   1_455  A
N242        N252   1.328       .  A
H243        C268   1.082       .  S
N244        N265   1.327       .  A
N244       N1709   1.323   1_455  A
N245        N250   1.326       .  A
N245        N999   1.318       .  A
C246        N986   1.352   1_545  A
C246        C274   1.453       .  S
C246        C416   1.478       .  S
N247        C262   1.344       .  A
N247       N1712   1.321   1_455  A
N247       Co269   2.094       .  S
C248        N276   1.340       .  A
C248        H282   1.080       .  S
C248        C987   1.461       .  S
N250        C982   1.352       .  A
C251        N272   1.347       .  A
C251        C401   1.482       .  S
C251        C984   1.461   1_545  S
N252       N1730   1.317   1_455  A
N253        C279   1.339       .  A
N253       N1727   1.317   1_455  A
N253       Co269   2.070       .  S
N254        C268   1.346       .  A
N254        N968   1.324       .  A
N255        N283   1.325       .  A
N255       N1725   1.317       .  A
N255       Co273   2.092       .  S
H256        C279   1.079       .  S
H257        C274   1.081       .  S
N258       N1724   1.317       .  A
N259        N977   1.321   1_545  A
N259       Co273   2.097       .  S
N260        N272   1.322       .  A
N260       N1012   1.319   1_545  A
N260       Co269   2.080       .  S
C261       N1737   1.352       .  A
C261        C275   1.457       .  S
C261        C356   1.479       .  S
C262        H266   1.082       .  S
C262       C1753   1.465       .  S
N263        C274   1.339       .  A
N263        N981   1.318   1_545  A
N263       Co273   2.075       .  S
N265       C1733   1.352   1_455  A
C267        N283   1.351       .  A
C267        C377   1.484       .  S
C267       C1751   1.458       .  S
C268        C967   1.467       .  S
Co269     Cl1752   2.448       .  S
N270        C281   1.352       .  A
C271       N1714   1.356       .  A
C271        C389   1.494       .  S
Co273      Cl280   2.460       .  S
N276        N996   1.319       .  A
N277        C975   1.348       .  A
C279       C1739   1.458       .  S
Cl280     Co2444   2.460   1_545  S
Cl280      Co974   2.443   1_545  S
Cl280     Co1741   2.448       .  S
C281        C365   1.489       .  S
C281       C1734   1.465       .  S
N284        C289   1.351       .  A
N284        C288   1.352       .  A
N284        H316   1.038       .  S
N285        C292   1.351       .  A
N285        C293   1.351       .  A
N286        C291   1.352       .  A
N286        C290   1.352       .  A
N286        H317   1.038       .  S
N287        C294   1.350       .  A
N287        C295   1.350       .  A
C288        C296   1.387   1_655  A
C288        C304   1.412       .  A
C289        C305   1.410       .  A
C289        C297   1.386   1_655  A
C290        C298   1.387   1_655  A
C290        C307   1.413       .  A
C291        C306   1.412       .  A
C291        C299   1.386   1_655  A
C292        C304   1.412       .  A
C292        C300   1.387       .  A
C293        C307   1.412       .  A
C293        C301   1.387       .  A
C294        C302   1.387       .  A
C294        C305   1.410       .  A
C295        C303   1.386       .  A
C295        C306   1.410       .  A
C296        C297   1.380       .  A
C296        H308   1.082       .  S
C297        H309   1.082       .  S
C298        C299   1.379       .  A
C298        H310   1.082       .  S
C299        H311   1.082       .  S
C300        C301   1.369       .  A
C300        H312   1.082       .  S
C301        H313   1.082       .  S
C302        C303   1.369       .  A
C302        H314   1.082       .  S
C303        H315   1.083       .  S
C304        C380   1.484       .  S
C305        C452   1.482       .  S
C306        C464   1.486       .  S
C307        C392   1.485       .  S
N318        C323   1.351       .  A
N318        C322   1.350       .  A
N318        H350   1.039       .  S
N319        C326   1.351       .  A
N319        C327   1.351       .  A
N320        C325   1.350       .  A
N320        C324   1.350       .  A
N320        H351   1.038       .  S
N321        C328   1.350       .  A
N321        C329   1.350       .  A
C322        C330   1.386       .  A
C322        C338   1.411       .  A
C323        C339   1.414       .  A
C323        C331   1.387       .  A
C324        C332   1.387       .  A
C324        C341   1.412       .  A
C325        C340   1.410       .  A
C325        C333   1.386       .  A
C326        C338   1.413       .  A
C326        C334   1.388       .  A
C327        C341   1.412       .  A
C327        C335   1.386       .  A
C328        C336   1.387       .  A
C328        C339   1.412       .  A
C329        C337   1.387       .  A
C329        C340   1.412       .  A
C330        C331   1.379       .  A
C330        H342   1.082       .  S
C331        H343   1.082       .  S
C332        C333   1.379       .  A
C332        H344   1.082       .  S
C333        H345   1.082       .  S
C334        C335   1.366       .  A
C334        H346   1.082       .  S
C335        H347   1.082       .  S
C336        C337   1.368       .  A
C336        H348   1.082       .  S
C337        H349   1.082       .  S
C338        C437   1.481       .  S
C339        C413   1.488       .  S
C340        C404   1.482       .  S
C341        C425   1.483       .  S
C352        C353   1.572       .  S
C352        C368   1.586   1_655  S
C352        C476   1.580   1_655  S
C352       C1960   1.577       .  S
C353        C354   1.418       .  A
C353       C1830   1.436       .  A
C354        C355   1.405       .  A
C354        H359   1.079       .  S
C355       C1828   1.406       .  A
C355        C362   1.444       .  S
C356        C357   1.394       .  A
C356       C1827   1.406       .  A
C357        C358   1.403       .  A
C357        H360   1.085       .  S
C358       C1825   1.436       .  A
C358        C361   1.445       .  S
C361        N363   1.157       .  T
C362        N364   1.157       .  T
C365        C370   1.403       .  A
C365       C1838   1.401       .  A
C366        C367   1.409       .  A
C366       C1837   1.401       .  A
C366        H371   1.084       .  S
C367        C368   1.431       .  A
C367        C374   1.442       .  S
C368       C1841   1.426   1_455  A
C369        C370   1.400       .  A
C369       C1840   1.426       .  A
C369        H372   1.079       .  S
C370        C373   1.446       .  S
C373        N375   1.157       .  T
C374        N376   1.157       .  T
C377        C378   1.408       .  A
C377       C1854   1.415       .  A
C378       C1851   1.402       .  A
C378        H383   1.085       .  S
C379        C380   1.407       .  A
C379       C1850   1.402       .  A
C379       C1858   1.444       .  S
C380        C381   1.400   1_655  A
C381        C382   1.398       .  A
C381        H384   1.085       .  S
C382       C1849   1.415       .  A
C382        C385   1.443       .  S
C385        N387   1.157       .  T
C386       C1851   1.444       .  S
C386        N388   1.157       .  T
C389        C390   1.411       .  A
C389       C1866   1.418       .  A
C390        C391   1.397       .  A
C390        H395   1.081       .  S
C391       C1864   1.404       .  A
C391        C398   1.445       .  S
C392        C393   1.401   1_655  A
C392       C1863   1.404       .  A
C393        C394   1.403       .  A
C393        H396   1.085       .  S
C394       C1861   1.418   1_455  A
C394        C397   1.442       .  S
C397        N399   1.157       .  T
C398        N400   1.157       .  T
C401        C406   1.417       .  A
C401       C1138   1.406   1_545  A
C402        C403   1.398       .  A
C402       C1137   1.406       .  A
C402        H407   1.083       .  S
C403        C404   1.406       .  A
C403        C410   1.443       .  S
C404       C1141   1.401       .  A
C405        C406   1.399       .  A
C405       C1140   1.401       .  A
C405        H408   1.085       .  S
C406        C409   1.444       .  S
C409        N411   1.157       .  T
C410        N412   1.157       .  T
C413        C414   1.401       .  A
C413       C1154   1.412       .  A
C414        C415   1.399       .  A
C414        H419   1.085       .  S
C415       C1152   1.411       .  A
C415        C422   1.439       .  S
C416        C417   1.403       .  A
C416       C1151   1.411   1_545  A
C417        C418   1.398       .  A
C417        H420   1.084       .  S
C418       C1149   1.412       .  A
C418        C421   1.444       .  S
C421        N423   1.157       .  T
C422        N424   1.156       .  T
C425        C426   1.401       .  A
C425       C1166   1.409       .  A
C426        C427   1.401       .  A
C426        H431   1.085       .  S
C427       C1164   1.413       .  A
C427        C434   1.442       .  S
C428        C429   1.405       .  A
C428       C1163   1.413   1_545  A
C429        C430   1.396       .  A
C429        H432   1.084       .  S
C430       C1161   1.409       .  A
C430        C433   1.445       .  S
C433        N435   1.157       .  T
C434        N436   1.157       .  T
C437        C438   1.398       .  A
C437       C1178   1.405       .  A
C438        C439   1.398       .  A
C438        H443   1.086       .  S
C439       C1176   1.421       .  A
C439        C446   1.442       .  S
C440        C441   1.410   1_565  A
C440       C1175   1.421       .  A
C441        C442   1.399       .  A
C441        H444   1.084       .  S
C442       C1173   1.405       .  A
C442        C445   1.443       .  S
C445        N447   1.157       .  T
C446        N448   1.158       .  T
C449        C450   1.410       .  A
C449       C1926   1.417       .  A
C450        C451   1.400       .  A
C450        H455   1.083       .  S
C451       C1924   1.404       .  A
C451        C458   1.443       .  S
C452        C453   1.399   1_655  A
C452       C1923   1.404       .  A
C453        C454   1.400       .  A
C453        H456   1.085       .  S
C454       C1921   1.417   1_455  A
C454        C457   1.443       .  S
C457        N459   1.157       .  T
C458        N460   1.157       .  T
C461        C462   1.406       .  A
C461       C1938   1.411       .  A
C462        C463   1.401       .  A
C462        H467   1.084       .  S
C463       C1936   1.409       .  A
C463        C470   1.443       .  S
C464        C465   1.403   1_655  A
C464       C1935   1.409       .  A
C465        C466   1.397       .  A
C465        H468   1.085       .  S
C466       C1933   1.411   1_455  A
C466        C469   1.444       .  S
C469        N471   1.157       .  T
C470        N472   1.157       .  T
C473        C474   1.394       .  A
C473        C478   1.408       .  A
C474        C475   1.403       .  A
C474        H479   1.086       .  S
C475        C476   1.440       .  A
C475        C482   1.443       .  S
C476        C477   1.420       .  A
C477        C478   1.403       .  A
C477        H480   1.084       .  S
C478        C481   1.444       .  S
C481        N483   1.157       .  T
C482        N484   1.158       .  T
C485        C486   1.391       .  A
C485        C490   1.405       .  A
C486        C487   1.399       .  A
C486        H491   1.086       .  S
C487        C488   1.435       .  A
C487        C494   1.444       .  S
C488       C1824   1.577       .  S
C488        C489   1.420       .  A
C489        C490   1.404       .  A
C489        H492   1.079       .  S
C490        C493   1.445       .  S
C493        N495   1.157       .  T
C494        N496   1.157       .  T
C497        C498   1.399       .  A
C497        C502   1.405       .  A
C498        C499   1.396       .  A
C498        H503   1.085       .  S
C499        C500   1.417       .  A
C499        C506   1.443       .  S
C500        C501   1.408       .  A
C501        C502   1.397       .  A
C501        H504   1.082       .  S
C502        C505   1.444       .  S
C505        N507   1.157       .  T
C506        N508   1.157       .  T
C509        C510   1.399       .  A
C509        C514   1.407       .  A
C510        C511   1.399       .  A
C510        H515   1.085       .  S
C511        C512   1.420       .  A
C511        C518   1.444       .  S
C512        C513   1.407       .  A
C513        C514   1.398       .  A
C513        H516   1.083       .  S
C514        C517   1.444       .  S
C517        N519   1.157       .  T
C518        N520   1.157       .  T
C521        C522   1.398       .  A
C521        C526   1.407       .  A
C522        C523   1.392       .  A
C522        H527   1.086       .  S
C523        C524   1.416       .  A
C523        C530   1.444       .  S
C524        C525   1.407       .  A
C525        C526   1.401       .  A
C525        H528   1.085       .  S
C526        C529   1.443       .  S
C529        N531   1.157       .  T
C530        N532   1.158       .  T
C533        C534   1.397       .  A
C533        C538   1.406       .  A
C534        C535   1.398       .  A
C534        H539   1.086       .  S
C535        C536   1.421       .  A
C535        C542   1.440       .  S
C536        C537   1.410       .  A
C537        C538   1.400       .  A
C537        H540   1.084       .  S
C538        C541   1.444       .  S
C541        N543   1.157       .  T
C542        N544   1.157       .  T
C545       C1509   1.590       .  S
C545        C550   1.433       .  A
C545       C2018   1.427       .  A
C546        C547   1.399       .  A
C546       C2017   1.427   1_455  A
C546        H551   1.078       .  S
C547       C2020   1.401   1_455  A
C547        C554   1.446       .  S
C548        C549   1.401       .  A
C548       C2019   1.401       .  A
C549        C550   1.410       .  A
C549        H552   1.085       .  S
C550        C553   1.442       .  S
C553        N555   1.157       .  T
C554        N556   1.157       .  T
C557       C1509   1.568       .  S
C557        C558   1.417       .  A
C557       C2034   1.436       .  A
C558        C559   1.406       .  A
C558        H563   1.079       .  S
C559        C560   1.407       .  A
C559        C566   1.444       .  S
C560       C2033   1.393       .  A
C561        C562   1.401       .  A
C561       C2032   1.393       .  A
C561        H564   1.085       .  S
C562       C2029   1.436       .  A
C562        C565   1.445       .  S
C565        N567   1.157       .  T
C566        N568   1.157       .  T
C569        C570   1.420       .  A
C569        C574   1.436       .  A
C570        C571   1.408       .  A
C570        H575   1.079       .  S
C571        C572   1.408       .  A
C571        C578   1.444       .  S
C572        C573   1.394       .  A
C573        C574   1.403       .  A
C573        H576   1.085       .  S
C574        C577   1.445       .  S
C577        N579   1.157       .  T
C578        N580   1.157       .  T
C581        C582   1.391       .  A
C581        C586   1.412       .  A
C582        C583   1.399       .  A
C582        H587   1.086       .  S
C583        C584   1.443       .  A
C583        C590   1.444       .  S
C584       C1509   1.581       .  S
C584        C585   1.418       .  A
C585        C586   1.406       .  A
C585        H588   1.084       .  S
C586        C589   1.444       .  S
C589        N591   1.157       .  T
C590        N592   1.158       .  T
C593        C598   1.432   1_565  A
C593       C1330   1.417       .  A
C594        C595   1.404       .  A
C594       C1329   1.417       .  A
C594        H599   1.083       .  S
C595       C1332   1.413       .  A
C595        C602   1.442       .  S
C596        C597   1.402   1_565  A
C596       C1331   1.413       .  A
C597        C598   1.403       .  A
C597        H600   1.085       .  S
C598        C601   1.444       .  S
C601        N603   1.158       .  T
C602        N604   1.158       .  T
C605        C610   1.409       .  A
C605       C1342   1.403   1_545  A
C606        C607   1.402       .  A
C606       C1341   1.403       .  A
C606        H611   1.085       .  S
C607       C1344   1.427       .  A
C607        C614   1.444       .  S
C608        C609   1.417   1_565  A
C608       C1343   1.427       .  A
C609        C610   1.401       .  A
C609        H612   1.081       .  S
C610        C613   1.443       .  S
C613        N615   1.157       .  T
C614        N616   1.158       .  T
C617        C618   1.418       .  A
C617        C622   1.436       .  A
C618        C619   1.405       .  A
C618        H623   1.084       .  S
C619        C620   1.413       .  A
C619        C626   1.442       .  S
C620        C621   1.397       .  A
C621        C622   1.399       .  A
C621        H624   1.086       .  S
C622        C625   1.443       .  S
C625        N627   1.158       .  T
C626        N628   1.158       .  T
C629        C630   1.401       .  A
C629        C634   1.409       .  A
C630        C631   1.405       .  A
C630        H635   1.084       .  S
C631        C632   1.430       .  A
C631        C638   1.440       .  S
C632        C772   1.581       .  S
C632        C633   1.421       .  A
C633        C634   1.403       .  A
C633        H636   1.080       .  S
C634        C637   1.445       .  S
C637        N639   1.157       .  T
C638        N640   1.157       .  T
C641        C642   1.400       .  A
C641        C646   1.406       .  A
C642        C643   1.394       .  A
C642        H647   1.086       .  S
C643        C644   1.415       .  A
C643        C650   1.444       .  S
C644        C645   1.406       .  A
C645        C646   1.400       .  A
C645        H648   1.085       .  S
C646        C649   1.443       .  S
C649        N651   1.157       .  T
C650        N652   1.157       .  T
C653        C654   1.399       .  A
C653        C658   1.414       .  A
C654        C655   1.398       .  A
C654        H659   1.085       .  S
C655        C656   1.413       .  A
C655        C662   1.439       .  S
C656        C657   1.403       .  A
C657        C658   1.402       .  A
C657        H660   1.085       .  S
C658        C661   1.444       .  S
C661        N663   1.157       .  T
C662        N664   1.156       .  T
C665        C666   1.404       .  A
C665        C670   1.411       .  A
C666        C667   1.400       .  A
C666        H671   1.083       .  S
C667        C668   1.409       .  A
C667        C674   1.444       .  S
C668        C669   1.402       .  A
C669        C670   1.395       .  A
C669        H672   1.085       .  S
C670        C673   1.444       .  S
C673        N675   1.157       .  T
C674        N676   1.157       .  T
C677        C678   1.408       .  A
C677        C682   1.416       .  A
C678        C679   1.401       .  A
C678        H683   1.084       .  S
C679        C680   1.407       .  A
C679        C686   1.444       .  S
C680        C681   1.401       .  A
C681        C682   1.398       .  A
C681        H684   1.085       .  S
C682        C685   1.444       .  S
C685        N687   1.157       .  T
C686        N688   1.157       .  T
C689        C737   1.574       .  S
C689        C690   1.424       .  A
C689       C1430   1.436       .  A
C690        C691   1.400       .  A
C690        H695   1.083       .  S
C691        C692   1.399       .  A
C691        C698   1.444       .  S
C692       C1429   1.397       .  A
C693        C694   1.407       .  A
C693       C1428   1.397       .  A
C693        H696   1.086       .  S
C694       C1425   1.436       .  A
C694        C697   1.440       .  S
C697        N699   1.158       .  T
C698        N700   1.157       .  T
C701        C737   1.570       .  S
C701        C702   1.413   1_565  A
C701       C1442   1.439       .  A
C702        C703   1.403       .  A
C702        H707   1.082       .  S
C703        C704   1.411   1_545  A
C703        C710   1.444       .  S
C704       C1441   1.392       .  A
C705        C706   1.400       .  A
C705       C1440   1.392       .  A
C705        H708   1.086       .  S
C706       C1437   1.439       .  A
C706        C709   1.445       .  S
C709        N711   1.158       .  T
C710        N712   1.157       .  T
C713        C714   1.394       .  A
C713        C718   1.410       .  A
C714        C715   1.402       .  A
C714        H719   1.086       .  S
C715        C716   1.440       .  A
C715        C722   1.445       .  S
C716        C737   1.585   1_545  S
C716        C717   1.419       .  A
C717        C718   1.409       .  A
C717        H720   1.082       .  S
C718        C721   1.443       .  S
C721        N723   1.157       .  T
C722        N724   1.158       .  T
C725        C726   1.419       .  A
C725        C730   1.435       .  A
C726        C727   1.406       .  A
C726        H731   1.080       .  S
C727        C728   1.406       .  A
C727        C734   1.444       .  S
C728        C729   1.390       .  A
C729        C730   1.399       .  A
C729        H732   1.086       .  S
C730        C733   1.442       .  S
C733        N735   1.157       .  T
C734        N736   1.157       .  T
C737       C1461   1.573       .  S
N738        C743   1.353       .  A
N738        C742   1.351   1_554  A
N738        H770   1.039       .  S
N739       C2218   1.351   1_455  A
N739        C747   1.351       .  A
N740        C745   1.349       .  A
N740        C744   1.350   1_554  A
N740        H771   1.040       .  S
N741       C2220   1.350   1_455  A
N741        C749   1.349       .  A
C742        C750   1.386       .  A
C742        C758   1.412       .  A
C743        C759   1.414       .  A
C743        C751   1.387       .  A
C744        C752   1.387       .  A
C744        C761   1.410       .  A
C745        C760   1.408       .  A
C745        C753   1.386       .  A
C746       N2211   1.351       .  A
C746        C758   1.413       .  A
C746        C754   1.387       .  A
C747        C761   1.413       .  A
C747        C755   1.386       .  A
C748       N2213   1.350       .  A
C748        C756   1.386       .  A
C748        C759   1.410       .  A
C749        C757   1.387       .  A
C749        C760   1.409       .  A
C750        C751   1.380   1_556  A
C750        H762   1.082       .  S
C751        H763   1.082       .  S
C752        C753   1.378   1_556  A
C752        H764   1.082       .  S
C753        H765   1.082       .  S
C754       C2227   1.369       .  A
C754        H766   1.082       .  S
C755       C2226   1.369   1_455  A
C755        H767   1.083       .  S
C756       C2229   1.369       .  A
C756        H768   1.082       .  S
C757       C2228   1.369   1_455  A
C757        H769   1.083       .  S
C758       C1416   1.484       .  S
C759       C1389   1.489       .  S
C760       C1377   1.479       .  S
C761       C1404   1.484       .  S
C772       C1329   1.580       .  S
C772       C1344   1.565       .  S
C772       C1353   1.571       .  S
C773       C2753   1.590   1_455  S
C773       C2765   1.568       .  S
C773       C1305   1.585       .  S
C773       C2792   1.581   1_455  S
N774        C779   1.351   1_554  A
N774        C778   1.350       .  A
N774        H806   1.035       .  S
N775        C783   1.352       .  A
N776        C781   1.352   1_554  A
N776        C780   1.350       .  A
N776        H807   1.032       .  S
N777        C785   1.351       .  A
C778        C786   1.387       .  A
C778        C794   1.410       .  A
C779        C795   1.411       .  A
C779        C787   1.387       .  A
C780        C788   1.387       .  A
C780        C797   1.413       .  A
C781        C796   1.414       .  A
C781        C789   1.387       .  A
C782        C794   1.414       .  A
C782        C790   1.387       .  A
C783        C797   1.415       .  A
C783        C791   1.387       .  A
C784        C792   1.386       .  A
C784        C795   1.411       .  A
C785        C793   1.388       .  A
C785        C796   1.414       .  A
C786        C787   1.377   1_554  A
C786        H798   1.082       .  S
C787        H799   1.082       .  S
C788        C789   1.379   1_554  A
C788        H800   1.082       .  S
C789        H801   1.082       .  S
C790        H802   1.082       .  S
C791        H803   1.082       .  S
C792        H804   1.083       .  S
C793        H805   1.082       .  S
C794       C1233   1.479       .  S
C795       C1257   1.480       .  S
C796       C1269   1.483       .  S
C797       C1245   1.482       .  S
C808        N826   1.350       .  A
C808        C845   1.460       .  S
C808       C1413   1.484       .  S
N809        N826   1.323       .  A
N809        N831   1.317       .  A
N809       Co846   2.085       .  S
C810        N835   1.342       .  A
C810        H855   1.081       .  S
C810        C848   1.467       .  S
H811        C852   1.076       .  S
C812        N836   1.337       .  A
C812        H841   1.081       .  S
C812        C816   1.453       .  S
Co813       N831   2.074       .  S
Co813       N821   2.086       .  S
Co813       N853   2.104       .  S
Co813       N829   2.091       .  S
Co813      Cl857   2.455       .  S
N814        C852   1.338       .  A
N814        N821   1.315       .  A
N814       Co815   2.071       .  S
Co815       N818   2.087       .  S
Co815       N835   2.094       .  S
Co815       N822   2.087       .  S
Co815      Cl857   2.449       .  S
C816        N854   1.351       .  A
C816       C1401   1.474       .  S
N817        N824   1.317       .  A
N817        N847   1.326       .  A
N817       Co850   2.094       .  S
N818        N836   1.318       .  A
N818        N854   1.325       .  A
N819        C848   1.352       .  A
N819        N829   1.325       .  A
H820        C845   1.081       .  S
N821        N842   1.324       .  A
N822        N840   1.324       .  A
N822        N827   1.325       .  A
C823        N827   1.347       .  A
C823        C851   1.467       .  S
C823       C1308   1.484       .  S
N824        C839   1.333       .  A
N824       Co846   2.057       .  S
C825        N853   1.343       .  A
C825        H859   1.082       .  S
C825        C828   1.468       .  S
C828        N849   1.347       .  A
C828       C1317   1.487       .  S
N829        N835   1.322       .  A
N830        C856   1.342       .  A
N830        N832   1.322       .  A
N830       Co846   2.089       .  S
N831        C845   1.340       .  A
N832        N860   1.323       .  A
N832       Co850   2.090       .  S
H833        C856   1.079       .  S
H834        C851   1.082       .  S
N836       Co850   2.067       .  S
N837        N849   1.324       .  A
N837        N853   1.322       .  A
N837       Co846   2.072       .  S
C838        N842   1.353       .  A
C838        C852   1.464       .  S
C838       C1272   1.491       .  S
C839        H843   1.079       .  S
C839        C858   1.453       .  S
N840        C851   1.348       .  A
N840       Co850   2.112       .  S
C844        N860   1.352       .  A
C844        C856   1.465       .  S
C844       C1356   1.491       .  S
Co846      Cl857   2.448       .  S
N847        C858   1.353       .  A
C848       C1365   1.493       .  S
Co850      Cl857   2.457       .  S
C858       C1260   1.479       .  S
C861        N879   1.346       .  A
C861        C898   1.462       .  S
C861       C1464   1.474       .  S
N862        N879   1.324       .  A
N862        N884   1.323       .  A
N862       Co899   2.079       .  S
C863        N888   1.336       .  A
C863        H908   1.078       .  S
C863        C901   1.455       .  S
H864        C905   1.081       .  S
C865        N889   1.342       .  A
C865        H894   1.082       .  S
C865        C869   1.462       .  S
Co866       N884   2.099       .  S
Co866       N874   2.099       .  S
Co866       N906   2.085       .  S
Co866       N882   2.080       .  S
Co866      Cl910   2.455       .  S
N867        C905   1.342       .  A
N867        N874   1.324       .  A
N867       Co868   2.091       .  S
Co868       N871   2.097       .  S
Co868       N888   2.072       .  S
Co868       N875   2.077       .  S
Co868      Cl910   2.452       .  S
C869        N907   1.352       .  A
C869       C1449   1.491       .  S
N870        N877   1.321       .  A
N870        N900   1.326       .  A
N870       Co903   2.093       .  S
N871        N889   1.323       .  A
N871        N907   1.328       .  A
N872        C901   1.351       .  A
N872        N882   1.324       .  A
H873        C898   1.082       .  S
N874        N895   1.326       .  A
N875        N893   1.317       .  A
N875        N880   1.322       .  A
C876        N880   1.348       .  A
C876        C904   1.460       .  S
C876       C1236   1.483       .  S
N877        C892   1.338       .  A
N877       Co899   2.079       .  S
C878        N906   1.342       .  A
C878        H912   1.081       .  S
C878        C881   1.465       .  S
C881        N902   1.348       .  A
C881       C1248   1.486       .  S
N882        N888   1.318       .  A
N883        C909   1.339       .  A
N883        N885   1.318       .  A
N883       Co899   2.078       .  S
N884        C898   1.344       .  A
N885        N913   1.327       .  A
N885       Co903   2.089       .  S
H886        C909   1.080       .  S
H887        C904   1.080       .  S
N889       Co903   2.098       .  S
N890        N902   1.321       .  A
N890        N906   1.317       .  A
N890       Co899   2.073       .  S
C891        N895   1.352       .  A
C891        C905   1.462       .  S
C891       C1209   1.487       .  S
C892        H896   1.082       .  S
C892        C911   1.456       .  S
N893        C904   1.338       .  A
N893       Co903   2.075       .  S
C897        N913   1.350       .  A
C897        C909   1.458       .  S
C897       C1392   1.481       .  S
Co899      Cl910   2.448       .  S
N900        C911   1.352       .  A
C901       C1380   1.476       .  S
Co903      Cl910   2.457       .  S
C911       C1221   1.472       .  S
C914        N932   1.353       .  A
C914       C2423   1.457       .  S
C914       C1296   1.477       .  S
N915        N932   1.326       .  A
N915       N2409   1.322       .  A
N915       Co952   2.099       .  S
C916        N941   1.335       .  A
C916        H961   1.080       .  S
C916        C954   1.452       .  S
H917        C958   1.080       .  S
C918        N942   1.343       .  A
C918        H947   1.082       .  S
C918        C922   1.463       .  S
Co919       N937   2.089       .  S
Co919       N927   2.076       .  S
Co919       N959   2.069       .  S
Co919       N935   2.090       .  S
Co919     Cl1699   2.447   1_465  S
N920        C958   1.344       .  A
N920       Co921   2.096       .  S
Co921       N924   2.097       .  S
Co921       N941   2.071       .  S
Co921       N928   2.088       .  S
Co921     Cl2435   2.454   1_455  S
C922       N2432   1.353       .  A
C922       C1284   1.488       .  S
N923        N953   1.324       .  A
N923       Co956   2.088       .  S
N924       N2414   1.322   1_455  A
N924        N960   1.326       .  A
N925        N935   1.327       .  A
H926        C951   1.082       .  S
N927        N948   1.322       .  A
N928       N2418   1.317   1_455  A
N928        N933   1.325       .  A
C929       N2405   1.350       .  A
C929        C957   1.460       .  S
C929       C1185   1.488       .  S
N930        C945   1.343       .  A
N930       Co952   2.095       .  S
C931        N959   1.338       .  A
C931        H965   1.081       .  S
C931       C2406   1.458       .  S
N933       C2401   1.350   1_455  A
C934        N955   1.348       .  A
C934       C2403   1.458       .  S
C934       C1197   1.476       .  S
N936        C962   1.338       .  A
N936       Co952   2.077       .  S
N937        C951   1.341       .  A
N937       N2387   1.322   1_455  A
N938        N966   1.323       .  A
N938       Co956   2.082       .  S
H939        C962   1.075       .  S
H940        C957   1.080       .  S
N942       N2396   1.322       .  A
N942       Co956   2.093       .  S
N943        N955   1.324       .  A
N943       N2431   1.316       .  A
N943       Co952   2.079       .  S
C944        C958   1.470       .  S
C944       C1341   1.487       .  S
C945        H949   1.079       .  S
N946        C957   1.340       .  A
N946       N2400   1.317       .  A
N946       Co956   2.077       .  S
C950        N966   1.352       .  A
C950       C1176   1.490       .  S
C951       C2386   1.457       .  S
N953        C964   1.352       .  A
C954       C1164   1.478       .  S
Co956      Cl963   2.454       .  S
N959       N2415   1.316   1_455  A
N960       C2394   1.353   1_455  A
Cl963     Co1655   2.447       .  S
Cl963     Co2393   2.454       .  S
C964       C1332   1.496       .  S
C967        N985   1.344       .  A
C967       C1440   1.480       .  S
N968        N985   1.322       .  A
N968      Co1005   2.071       .  S
C969        N994   1.336       .  A
C969       H1014   1.080       .  S
C969       C1007   1.460       .  S
H970       C1011   1.081       .  S
C971        N995   1.344       .  A
C971       H1000   1.082       .  S
C971        C975   1.466       .  S
Co972       N990   2.111       .  S
Co972       N980   2.100       .  S
Co972      N1012   2.079       .  S
Co972       N988   2.100       .  S
Co972     Cl1752   2.460   1_565  S
N973       C1011   1.342       .  A
N973       N2452   1.323       .  A
N973       Co974   2.091       .  S
Co974       N977   2.083       .  S
Co974       N994   2.069       .  S
Co974       N981   2.091       .  S
C975       C1428   1.477       .  S
N976       N2455   1.321       .  A
N976       N1006   1.325       .  A
N976      Co1009   2.091       .  S
N977       N1013   1.323       .  A
N978       C2479   1.356   1_455  A
N978        N988   1.328       .  A
H979       C1004   1.082       .  S
N980       N2445   1.323   1_455  A
N980       N1001   1.327       .  A
N981        N986   1.326       .  A
C982       C1010   1.453       .  S
C982       C1152   1.478       .  S
N983        C998   1.344       .  A
N983       N2448   1.321   1_455  A
N983      Co1005   2.094       .  S
C984       N1012   1.340       .  A
C984       H1018   1.080       .  S
C987       N1008   1.347       .  A
C987       C1137   1.482       .  S
N988       N2466   1.317   1_455  A
N989       C1015   1.339       .  A
N989       N2463   1.317   1_455  A
N989      Co1005   2.070       .  S
N990       C1004   1.346       .  A
N991       N2461   1.317       .  A
N991       N1019   1.325       .  A
N991      Co1009   2.092       .  S
H992       C1015   1.079       .  S
H993       C1010   1.081       .  S
N994       N2460   1.317       .  A
N995      Co1009   2.097       .  S
N996       N1008   1.322       .  A
N996      Co1005   2.080       .  S
C997       N2473   1.352       .  A
C997       C1011   1.457       .  S
C997       C1092   1.479       .  S
C998       H1002   1.082       .  S
C998       C2489   1.465       .  S
N999       C1010   1.339       .  A
N999      Co1009   2.075       .  S
N1001      C2469   1.352   1_455  A
C1003      N1019   1.351       .  A
C1003      C2487   1.458       .  S
C1003      C1113   1.484       .  S
Co1005    Cl2488   2.448       .  S
N1006      C1017   1.352       .  A
C1007      N2450   1.356       .  A
C1007      C1125   1.494       .  S
Co1009    Cl1016   2.460       .  S
C1015      C2475   1.458       .  S
Cl1016    Co1708   2.460       .  S
Cl1016    Co2477   2.448       .  S
C1017      C2470   1.465       .  S
C1017      C1101   1.489       .  S
N1020      C1025   1.351       .  A
N1020      C1024   1.352       .  A
N1020      H1052   1.038       .  S
N1021      C1028   1.351       .  A
N1021      C1029   1.351       .  A
N1022      C1027   1.352       .  A
N1022      C1026   1.352       .  A
N1022      H1053   1.038       .  S
N1023      C1030   1.350       .  A
N1023      C1031   1.350       .  A
C1024      C1032   1.387   1_655  A
C1024      C1040   1.412       .  A
C1025      C1041   1.410       .  A
C1025      C1033   1.386   1_655  A
C1026      C1034   1.387   1_655  A
C1026      C1043   1.413       .  A
C1027      C1042   1.412       .  A
C1027      C1035   1.386   1_655  A
C1028      C1040   1.412       .  A
C1028      C1036   1.387       .  A
C1029      C1043   1.412       .  A
C1029      C1037   1.387       .  A
C1030      C1038   1.387       .  A
C1030      C1041   1.410       .  A
C1031      C1039   1.386       .  A
C1031      C1042   1.410       .  A
C1032      C1033   1.380       .  A
C1032      H1044   1.082       .  S
C1033      H1045   1.082       .  S
C1034      C1035   1.379       .  A
C1034      H1046   1.082       .  S
C1035      H1047   1.082       .  S
C1036      C1037   1.369       .  A
C1036      H1048   1.082       .  S
C1037      H1049   1.082       .  S
C1038      C1039   1.369       .  A
C1038      H1050   1.082       .  S
C1039      H1051   1.083       .  S
C1040      C1116   1.484       .  S
C1041      C1188   1.482       .  S
C1042      C1200   1.486       .  S
C1043      C1128   1.485       .  S
N1054      C1059   1.351       .  A
N1054      C1058   1.350       .  A
N1054      H1086   1.039       .  S
N1055      C1062   1.351       .  A
N1055      C1063   1.351       .  A
N1056      C1061   1.350       .  A
N1056      C1060   1.350       .  A
N1056      H1087   1.038       .  S
N1057      C1064   1.350       .  A
N1057      C1065   1.350       .  A
C1058      C1066   1.386       .  A
C1058      C1074   1.411       .  A
C1059      C1075   1.414       .  A
C1059      C1067   1.387       .  A
C1060      C1068   1.387       .  A
C1060      C1077   1.412       .  A
C1061      C1076   1.410       .  A
C1061      C1069   1.386       .  A
C1062      C1074   1.413       .  A
C1062      C1070   1.388   1_545  A
C1063      C1077   1.412       .  A
C1063      C1071   1.386   1_545  A
C1064      C1072   1.387       .  A
C1064      C1075   1.412       .  A
C1065      C1073   1.387       .  A
C1065      C1076   1.412       .  A
C1066      C1067   1.379       .  A
C1066      H1078   1.082       .  S
C1067      H1079   1.082       .  S
C1068      C1069   1.379       .  A
C1068      H1080   1.082       .  S
C1069      H1081   1.082       .  S
C1070      C1071   1.366       .  A
C1070      H1082   1.082       .  S
C1071      H1083   1.082       .  S
C1072      C1073   1.368       .  A
C1072      H1084   1.082   1_545  S
C1073      H1085   1.082   1_545  S
C1074      C1173   1.481       .  S
C1075      C1149   1.488       .  S
C1076      C1140   1.482       .  S
C1077      C1161   1.483       .  S
C1088      C1089   1.572       .  S
C1088      C1104   1.586   1_655  S
C1088      C1212   1.580   1_655  S
C1088      C2696   1.577       .  S
C1089      C1090   1.418       .  A
C1089      C2566   1.436       .  A
C1090      C1091   1.405       .  A
C1090      H1095   1.079       .  S
C1091      C2564   1.406       .  A
C1091      C1098   1.444       .  S
C1092      C2563   1.406       .  A
C1092      C1093   1.394       .  A
C1093      C1094   1.403       .  A
C1093      H1096   1.085       .  S
C1094      C2561   1.436       .  A
C1094      C1097   1.445       .  S
C1097      N1099   1.157       .  T
C1098      N1100   1.157       .  T
C1101      C2574   1.401       .  A
C1101      C1106   1.403       .  A
C1102      C2573   1.401       .  A
C1102      C1103   1.409       .  A
C1102      H1107   1.084       .  S
C1103      C1104   1.431       .  A
C1103      C1110   1.442       .  S
C1104      C2577   1.426   1_455  A
C1105      C2576   1.426       .  A
C1105      C1106   1.400       .  A
C1105      H1108   1.079       .  S
C1106      C1109   1.446       .  S
C1109      N1111   1.157       .  T
C1110      N1112   1.157       .  T
C1113      C1114   1.408       .  A
C1113      C2590   1.415       .  A
C1114      C2587   1.402       .  A
C1114      H1119   1.085       .  S
C1115      C2586   1.402       .  A
C1115      C1116   1.407       .  A
C1115      C2594   1.444       .  S
C1116      C1117   1.400   1_655  A
C1117      C1118   1.398       .  A
C1117      H1120   1.085       .  S
C1118      C2585   1.415       .  A
C1118      C1121   1.443       .  S
C1121      N1123   1.157       .  T
C1122      C2587   1.444       .  S
C1122      N1124   1.157       .  T
C1125      C1126   1.411       .  A
C1125      C2602   1.418       .  A
C1126      C1127   1.397       .  A
C1126      H1131   1.081       .  S
C1127      C2600   1.404       .  A
C1127      C1134   1.445       .  S
C1128      C2599   1.404       .  A
C1128      C1129   1.401   1_655  A
C1129      C1130   1.403       .  A
C1129      H1132   1.085       .  S
C1130      C2597   1.418   1_455  A
C1130      C1133   1.442       .  S
C1133      N1135   1.157       .  T
C1134      N1136   1.157       .  T
C1137      C1142   1.417       .  A
C1138      C1139   1.398       .  A
C1138      H1143   1.083       .  S
C1139      C1140   1.406   1_565  A
C1139      C1146   1.443       .  S
C1141      C1142   1.399       .  A
C1141      H1144   1.085       .  S
C1142      C1145   1.444       .  S
C1145      N1147   1.157       .  T
C1146      N1148   1.157       .  T
C1149      C1150   1.401   1_545  A
C1150      C1151   1.399       .  A
C1150      H1155   1.085       .  S
C1151      C1158   1.439       .  S
C1152      C1153   1.403       .  A
C1153      C1154   1.398       .  A
C1153      H1156   1.084       .  S
C1154      C1157   1.444       .  S
C1157      N1159   1.157       .  T
C1158      N1160   1.156       .  T
C1161      C1162   1.401   1_545  A
C1162      C1163   1.401       .  A
C1162      H1167   1.085       .  S
C1163      C1170   1.442       .  S
C1164      C1165   1.405       .  A
C1165      C1166   1.396       .  A
C1165      H1168   1.084       .  S
C1166      C1169   1.445       .  S
C1169      N1171   1.157       .  T
C1170      N1172   1.157       .  T
C1173      C1174   1.398   1_545  A
C1174      C1175   1.398       .  A
C1174      H1179   1.086       .  S
C1175      C1182   1.442       .  S
C1176      C1177   1.410       .  A
C1177      C1178   1.399       .  A
C1177      H1180   1.084       .  S
C1178      C1181   1.443       .  S
C1181      N1183   1.157       .  T
C1182      N1184   1.158       .  T
C1185      C1186   1.410       .  A
C1185      C2662   1.417       .  A
C1186      C1187   1.400       .  A
C1186      H1191   1.083       .  S
C1187      C2660   1.404       .  A
C1187      C1194   1.443       .  S
C1188      C2659   1.404       .  A
C1188      C1189   1.399   1_655  A
C1189      C1190   1.400       .  A
C1189      H1192   1.085       .  S
C1190      C2657   1.417   1_455  A
C1190      C1193   1.443       .  S
C1193      N1195   1.157       .  T
C1194      N1196   1.157       .  T
C1197      C1198   1.406       .  A
C1197      C2674   1.411       .  A
C1198      C1199   1.401       .  A
C1198      H1203   1.084       .  S
C1199      C2672   1.409       .  A
C1199      C1206   1.443       .  S
C1200      C2671   1.409       .  A
C1200      C1201   1.403   1_655  A
C1201      C1202   1.397       .  A
C1201      H1204   1.085       .  S
C1202      C2669   1.411   1_455  A
C1202      C1205   1.444       .  S
C1205      N1207   1.157       .  T
C1206      N1208   1.157       .  T
C1209      C1210   1.394       .  A
C1209      C1214   1.408       .  A
C1210      C1211   1.403       .  A
C1210      H1215   1.086       .  S
C1211      C1212   1.440       .  A
C1211      C1218   1.443       .  S
C1212      C1213   1.420       .  A
C1213      C1214   1.403       .  A
C1213      H1216   1.084       .  S
C1214      C1217   1.444       .  S
C1217      N1219   1.157       .  T
C1218      N1220   1.158       .  T
C1221      C1222   1.391       .  A
C1221      C1226   1.405       .  A
C1222      C1223   1.399       .  A
C1222      H1227   1.086       .  S
C1223      C1224   1.435       .  A
C1223      C1230   1.444       .  S
C1224      C2560   1.577       .  S
C1224      C1225   1.420       .  A
C1225      C1226   1.404       .  A
C1225      H1228   1.079       .  S
C1226      C1229   1.445       .  S
C1229      N1231   1.157       .  T
C1230      N1232   1.157       .  T
C1233      C1234   1.399       .  A
C1233      C1238   1.405       .  A
C1234      C1235   1.396       .  A
C1234      H1239   1.085       .  S
C1235      C1236   1.417       .  A
C1235      C1242   1.443       .  S
C1236      C1237   1.408       .  A
C1237      C1238   1.397       .  A
C1237      H1240   1.082       .  S
C1238      C1241   1.444       .  S
C1241      N1243   1.157       .  T
C1242      N1244   1.157       .  T
C1245      C1246   1.399       .  A
C1245      C1250   1.407       .  A
C1246      C1247   1.399       .  A
C1246      H1251   1.085       .  S
C1247      C1248   1.420       .  A
C1247      C1254   1.444       .  S
C1248      C1249   1.407       .  A
C1249      C1250   1.398       .  A
C1249      H1252   1.083       .  S
C1250      C1253   1.444       .  S
C1253      N1255   1.157       .  T
C1254      N1256   1.157       .  T
C1257      C1258   1.398       .  A
C1257      C1262   1.407       .  A
C1258      C1259   1.392       .  A
C1258      H1263   1.086       .  S
C1259      C1260   1.416       .  A
C1259      C1266   1.444       .  S
C1260      C1261   1.407       .  A
C1261      C1262   1.401       .  A
C1261      H1264   1.085       .  S
C1262      C1265   1.443       .  S
C1265      N1267   1.157       .  T
C1266      N1268   1.158       .  T
C1269      C1270   1.397       .  A
C1269      C1274   1.406       .  A
C1270      C1271   1.398       .  A
C1270      H1275   1.086       .  S
C1271      C1272   1.421       .  A
C1271      C1278   1.440       .  S
C1272      C1273   1.410       .  A
C1273      C1274   1.400       .  A
C1273      H1276   1.084       .  S
C1274      C1277   1.444       .  S
C1277      N1279   1.157       .  T
C1278      N1280   1.157       .  T
C1281      C2245   1.590       .  S
C1281      C2754   1.427       .  A
C1281      C1286   1.433       .  A
C1282      C2753   1.427   1_455  A
C1282      C1283   1.399       .  A
C1282      H1287   1.078       .  S
C1283      C2756   1.401   1_455  A
C1283      C1290   1.446       .  S
C1284      C2755   1.401       .  A
C1284      C1285   1.401       .  A
C1285      C1286   1.410       .  A
C1285      H1288   1.085       .  S
C1286      C1289   1.442       .  S
C1289      N1291   1.157       .  T
C1290      N1292   1.157       .  T
C1293      C2245   1.568       .  S
C1293      C1294   1.417       .  A
C1293      C2770   1.436       .  A
C1294      C1295   1.406       .  A
C1294      H1299   1.079       .  S
C1295      C1296   1.407       .  A
C1295      C1302   1.444       .  S
C1296      C2769   1.393       .  A
C1297      C2768   1.393       .  A
C1297      C1298   1.401       .  A
C1297      H1300   1.085       .  S
C1298      C2765   1.436       .  A
C1298      C1301   1.445       .  S
C1301      N1303   1.157       .  T
C1302      N1304   1.157       .  T
C1305      C1306   1.420       .  A
C1305      C1310   1.436       .  A
C1306      C1307   1.408       .  A
C1306      H1311   1.079       .  S
C1307      C1308   1.408       .  A
C1307      C1314   1.444       .  S
C1308      C1309   1.394       .  A
C1309      C1310   1.403       .  A
C1309      H1312   1.085       .  S
C1310      C1313   1.445       .  S
C1313      N1315   1.157       .  T
C1314      N1316   1.157       .  T
C1317      C1318   1.391       .  A
C1317      C1322   1.412       .  A
C1318      C1319   1.399       .  A
C1318      H1323   1.086       .  S
C1319      C1320   1.443       .  A
C1319      C1326   1.444       .  S
C1320      C2245   1.581       .  S
C1320      C1321   1.418       .  A
C1321      C1322   1.406       .  A
C1321      H1324   1.084       .  S
C1322      C1325   1.444       .  S
C1325      N1327   1.157       .  T
C1326      N1328   1.158       .  T
C1329      C1334   1.432       .  A
C1330      C1331   1.404       .  A
C1330      H1335   1.083       .  S
C1331      C1338   1.442       .  S
C1332      C1333   1.402       .  A
C1333      C1334   1.403       .  A
C1333      H1336   1.085       .  S
C1334      C1337   1.444       .  S
C1337      N1339   1.158       .  T
C1338      N1340   1.158       .  T
C1341      C1346   1.409       .  A
C1342      C1343   1.402       .  A
C1342      H1347   1.085       .  S
C1343      C1350   1.444       .  S
C1344      C1345   1.417       .  A
C1345      C1346   1.401       .  A
C1345      H1348   1.081       .  S
C1346      C1349   1.443       .  S
C1349      N1351   1.157       .  T
C1350      N1352   1.158       .  T
C1353      C1354   1.418       .  A
C1353      C1358   1.436       .  A
C1354      C1355   1.405       .  A
C1354      H1359   1.084       .  S
C1355      C1356   1.413       .  A
C1355      C1362   1.442       .  S
C1356      C1357   1.397       .  A
C1357      C1358   1.399       .  A
C1357      H1360   1.086       .  S
C1358      C1361   1.443       .  S
C1361      N1363   1.158       .  T
C1362      N1364   1.158       .  T
C1365      C1366   1.401       .  A
C1365      C1370   1.409       .  A
C1366      C1367   1.405       .  A
C1366      H1371   1.084       .  S
C1367      C1368   1.430       .  A
C1367      C1374   1.440       .  S
C1368      C1369   1.421       .  A
C1369      C1370   1.403       .  A
C1369      H1372   1.080       .  S
C1370      C1373   1.445       .  S
C1373      N1375   1.157       .  T
C1374      N1376   1.157       .  T
C1377      C1378   1.400       .  A
C1377      C1382   1.406       .  A
C1378      C1379   1.394       .  A
C1378      H1383   1.086       .  S
C1379      C1380   1.415       .  A
C1379      C1386   1.444       .  S
C1380      C1381   1.406       .  A
C1381      C1382   1.400       .  A
C1381      H1384   1.085       .  S
C1382      C1385   1.443       .  S
C1385      N1387   1.157       .  T
C1386      N1388   1.157       .  T
C1389      C1390   1.399       .  A
C1389      C1394   1.414       .  A
C1390      C1391   1.398       .  A
C1390      H1395   1.085       .  S
C1391      C1392   1.413       .  A
C1391      C1398   1.439       .  S
C1392      C1393   1.403       .  A
C1393      C1394   1.402       .  A
C1393      H1396   1.085       .  S
C1394      C1397   1.444       .  S
C1397      N1399   1.157       .  T
C1398      N1400   1.156       .  T
C1401      C1402   1.404       .  A
C1401      C1406   1.411       .  A
C1402      C1403   1.400       .  A
C1402      H1407   1.083       .  S
C1403      C1404   1.409       .  A
C1403      C1410   1.444       .  S
C1404      C1405   1.402       .  A
C1405      C1406   1.395       .  A
C1405      H1408   1.085       .  S
C1406      C1409   1.444       .  S
C1409      N1411   1.157       .  T
C1410      N1412   1.157       .  T
C1413      C1414   1.408       .  A
C1413      C1418   1.416       .  A
C1414      C1415   1.401       .  A
C1414      H1419   1.084       .  S
C1415      C1416   1.407       .  A
C1415      C1422   1.444       .  S
C1416      C1417   1.401       .  A
C1417      C1418   1.398       .  A
C1417      H1420   1.085       .  S
C1418      C1421   1.444       .  S
C1421      N1423   1.157       .  T
C1422      N1424   1.157       .  T
C1425      C1426   1.424       .  A
C1426      C1427   1.400       .  A
C1426      H1431   1.083       .  S
C1427      C1428   1.399       .  A
C1427      C1434   1.444       .  S
C1429      C1430   1.407       .  A
C1429      H1432   1.086       .  S
C1430      C1433   1.440       .  S
C1433      N1435   1.158       .  T
C1434      N1436   1.157       .  T
C1437      C1438   1.413       .  A
C1438      C1439   1.403       .  A
C1438      H1443   1.082       .  S
C1439      C1440   1.411       .  A
C1439      C1446   1.444       .  S
C1441      C1442   1.400       .  A
C1441      H1444   1.086       .  S
C1442      C1445   1.445       .  S
C1445      N1447   1.158       .  T
C1446      N1448   1.157       .  T
C1449      C1450   1.394       .  A
C1449      C1454   1.410       .  A
C1450      C1451   1.402       .  A
C1450      H1455   1.086       .  S
C1451      C1452   1.440       .  A
C1451      C1458   1.445       .  S
C1452      C1453   1.419       .  A
C1453      C1454   1.409       .  A
C1453      H1456   1.082       .  S
C1454      C1457   1.443       .  S
C1457      N1459   1.157       .  T
C1458      N1460   1.158       .  T
C1461      C1462   1.419       .  A
C1461      C1466   1.435       .  A
C1462      C1463   1.406       .  A
C1462      H1467   1.080       .  S
C1463      C1464   1.406       .  A
C1463      C1470   1.444       .  S
C1464      C1465   1.390       .  A
C1465      C1466   1.399       .  A
C1465      H1468   1.086       .  S
C1466      C1469   1.442       .  S
C1469      N1471   1.157       .  T
C1470      N1472   1.157       .  T
C1473      C2897   1.574       .  S
C1473      C2909   1.570       .  S
C1473      C2924   1.585       .  S
C1473      C2197   1.573       .  S
N1474      C1479   1.353       .  A
N1474      C1478   1.351   1_554  A
N1474      H1506   1.039       .  S
N1475      C1483   1.351       .  A
N1476      C1481   1.349       .  A
N1476      C1480   1.350   1_554  A
N1476      H1507   1.040       .  S
N1477      C1485   1.349       .  A
C1478      C1486   1.386       .  A
C1478      C1494   1.412       .  A
C1479      C1495   1.414       .  A
C1479      C1487   1.387       .  A
C1480      C1488   1.387       .  A
C1480      C1497   1.410       .  A
C1481      C1496   1.408       .  A
C1481      C1489   1.386       .  A
C1482      C1494   1.413       .  A
C1482      C1490   1.387       .  A
C1483      C1497   1.413       .  A
C1483      C1491   1.386       .  A
C1484      C1492   1.386       .  A
C1484      C1495   1.410       .  A
C1485      C1493   1.387       .  A
C1485      C1496   1.409       .  A
C1486      C1487   1.380   1_556  A
C1486      H1498   1.082       .  S
C1487      H1499   1.082       .  S
C1488      C1489   1.378   1_556  A
C1488      H1500   1.082       .  S
C1489      H1501   1.082       .  S
C1490      H1502   1.082       .  S
C1491      H1503   1.083       .  S
C1492      H1504   1.082       .  S
C1493      H1505   1.083       .  S
C1494      C2152   1.484       .  S
C1495      C2125   1.489       .  S
C1496      C2113   1.479       .  S
C1497      C2140   1.484       .  S
C1508      C2065   1.580       .  S
C1508      C2080   1.565       .  S
C1508      C2089   1.571   1_565  S
C1508      C2840   1.581       .  S
C1509      C2041   1.585       .  S
N1510      C1515   1.351   1_554  A
N1510      C1514   1.350       .  A
N1510      H1542   1.035       .  S
N1511      C2254   1.352       .  A
N1511      C1519   1.352       .  A
N1512      C1517   1.352   1_554  A
N1512      C1516   1.350       .  A
N1512      H1543   1.032       .  S
N1513      C2256   1.350       .  A
N1513      C1521   1.351       .  A
C1514      C1522   1.387       .  A
C1514      C1530   1.410       .  A
C1515      C1531   1.411       .  A
C1515      C1523   1.387       .  A
C1516      C1524   1.387       .  A
C1516      C1533   1.413       .  A
C1517      C1532   1.414       .  A
C1517      C1525   1.387       .  A
C1518      N2247   1.352   1_545  A
C1518      C1530   1.414       .  A
C1518      C1526   1.387       .  A
C1519      C1533   1.415       .  A
C1519      C1527   1.387       .  A
C1520      N2249   1.350   1_545  A
C1520      C1528   1.386       .  A
C1520      C1531   1.411       .  A
C1521      C1529   1.388       .  A
C1521      C1532   1.414       .  A
C1522      C1523   1.377   1_554  A
C1522      H1534   1.082       .  S
C1523      H1535   1.082       .  S
C1524      C1525   1.379   1_554  A
C1524      H1536   1.082       .  S
C1525      H1537   1.082       .  S
C1526      C2263   1.364   1_545  A
C1526      H1538   1.082       .  S
C1527      C2262   1.364       .  A
C1527      H1539   1.082       .  S
C1528      C2265   1.366   1_545  A
C1528      H1540   1.083       .  S
C1529      C2264   1.366       .  A
C1529      H1541   1.082       .  S
C1530      C1969   1.479       .  S
C1531      C1993   1.480       .  S
C1532      C2005   1.483       .  S
C1533      C1981   1.482       .  S
C1544      N1562   1.350       .  A
C1544      C1581   1.460       .  S
C1544      C2149   1.484       .  S
N1545      N1562   1.323       .  A
N1545      N1567   1.317       .  A
N1545     Co1582   2.085       .  S
C1546      N1571   1.342       .  A
C1546      H1591   1.081       .  S
C1546      C1584   1.467       .  S
H1547      C1588   1.076       .  S
C1548      N1572   1.337       .  A
C1548      H1577   1.081       .  S
C1548      C1552   1.453       .  S
Co1549     N1567   2.074       .  S
Co1549     N1557   2.086       .  S
Co1549     N1589   2.104       .  S
Co1549     N1565   2.091       .  S
Co1549    Cl1593   2.455       .  S
N1550      C1588   1.338       .  A
N1550      N1557   1.315       .  A
N1550     Co1551   2.071       .  S
Co1551     N1554   2.087       .  S
Co1551     N1571   2.094       .  S
Co1551     N1558   2.087       .  S
Co1551    Cl1593   2.449       .  S
C1552      N1590   1.351       .  A
C1552      C2137   1.474       .  S
N1553      N1560   1.317       .  A
N1553      N1583   1.326       .  A
N1553     Co1586   2.094       .  S
N1554      N1572   1.318       .  A
N1554      N1590   1.325       .  A
N1555      C1584   1.352       .  A
N1555      N1565   1.325       .  A
H1556      C1581   1.081       .  S
N1557      N1578   1.324       .  A
N1558      N1576   1.324       .  A
N1558      N1563   1.325       .  A
C1559      N1563   1.347       .  A
C1559      C1587   1.467       .  S
C1559      C2044   1.484       .  S
N1560      C1575   1.333       .  A
N1560     Co1582   2.057       .  S
C1561      N1589   1.343       .  A
C1561      H1595   1.082       .  S
C1561      C1564   1.468       .  S
C1564      N1585   1.347       .  A
C1564      C2053   1.487       .  S
N1565      N1571   1.322       .  A
N1566      C1592   1.342       .  A
N1566      N1568   1.322       .  A
N1566     Co1582   2.089       .  S
N1567      C1581   1.340       .  A
N1568      N1596   1.323       .  A
N1568     Co1586   2.090       .  S
H1569      C1592   1.079       .  S
H1570      C1587   1.082       .  S
N1572     Co1586   2.067       .  S
N1573      N1585   1.324       .  A
N1573      N1589   1.322       .  A
N1573     Co1582   2.072       .  S
C1574      N1578   1.353       .  A
C1574      C1588   1.464       .  S
C1574      C2008   1.491       .  S
C1575      H1579   1.079       .  S
C1575      C1594   1.453       .  S
N1576      C1587   1.348       .  A
N1576     Co1586   2.112       .  S
C1580      N1596   1.352       .  A
C1580      C1592   1.465       .  S
C1580      C2092   1.491       .  S
Co1582    Cl1593   2.448       .  S
N1583      C1594   1.353       .  A
C1584      C2101   1.493       .  S
Co1586    Cl1593   2.457       .  S
C1594      C1996   1.479       .  S
C1597      N1615   1.346       .  A
C1597      C1634   1.462       .  S
C1597      C2200   1.474       .  S
N1598      N1615   1.324       .  A
N1598      N1620   1.323       .  A
N1598     Co1635   2.079       .  S
C1599      N1624   1.336       .  A
C1599      H1644   1.078       .  S
C1599      C1637   1.455       .  S
H1600      C1641   1.081       .  S
C1601      N1625   1.342       .  A
C1601      H1630   1.082       .  S
C1601      C1605   1.462       .  S
Co1602     N1620   2.099       .  S
Co1602     N1610   2.099       .  S
Co1602     N1642   2.085       .  S
Co1602     N1618   2.080       .  S
Co1602    Cl1646   2.455       .  S
N1603      C1641   1.342       .  A
N1603      N1610   1.324       .  A
N1603     Co1604   2.091       .  S
Co1604     N1607   2.097       .  S
Co1604     N1624   2.072       .  S
Co1604     N1611   2.077       .  S
Co1604    Cl1646   2.452       .  S
C1605      N1643   1.352       .  A
C1605      C2185   1.491       .  S
N1606      N1613   1.321       .  A
N1606      N1636   1.326       .  A
N1606     Co1639   2.093       .  S
N1607      N1625   1.323       .  A
N1607      N1643   1.328       .  A
N1608      C1637   1.351       .  A
N1608      N1618   1.324       .  A
H1609      C1634   1.082       .  S
N1610      N1631   1.326       .  A
N1611      N1629   1.317       .  A
N1611      N1616   1.322       .  A
C1612      N1616   1.348       .  A
C1612      C1640   1.460       .  S
C1612      C1972   1.483       .  S
N1613      C1628   1.338       .  A
N1613     Co1635   2.079       .  S
C1614      N1642   1.342       .  A
C1614      H1648   1.081       .  S
C1614      C1617   1.465       .  S
C1617      N1638   1.348       .  A
C1617      C1984   1.486       .  S
N1618      N1624   1.318       .  A
N1619      C1645   1.339       .  A
N1619      N1621   1.318       .  A
N1619     Co1635   2.078       .  S
N1620      C1634   1.344       .  A
N1621      N1649   1.327       .  A
N1621     Co1639   2.089       .  S
H1622      C1645   1.080       .  S
H1623      C1640   1.080       .  S
N1625     Co1639   2.099       .  S
N1626      N1638   1.321       .  A
N1626      N1642   1.317       .  A
N1626     Co1635   2.073       .  S
C1627      N1631   1.352       .  A
C1627      C1641   1.462       .  S
C1627      C1945   1.487       .  S
C1628      H1632   1.082       .  S
C1628      C1647   1.456       .  S
N1629      C1640   1.338       .  A
N1629     Co1639   2.075       .  S
C1633      N1649   1.350       .  A
C1633      C1645   1.458       .  S
C1633      C2128   1.481       .  S
Co1635    Cl1646   2.448       .  S
N1636      C1647   1.352       .  A
C1637      C2116   1.476       .  S
Co1639    Cl1646   2.457       .  S
C1647      C1957   1.472       .  S
C1650      N1668   1.353   1_455  A
C1650      C2032   1.477       .  S
N1651      N1668   1.326       .  A
N1651     Co1688   2.099       .  S
C1652      N1677   1.335       .  A
C1652      H1697   1.080       .  S
C1652      C1690   1.452       .  S
H1653      C1694   1.080       .  S
C1654      N1678   1.343       .  A
C1654      H1683   1.082       .  S
C1654      C1658   1.463       .  S
Co1655     N1673   2.089       .  S
Co1655     N1663   2.076       .  S
Co1655     N1695   2.069       .  S
Co1655     N1671   2.090       .  S
N1656      C1694   1.344       .  A
N1656      N2399   1.321   1_545  A
N1656     Co1657   2.096       .  S
Co1657     N1660   2.097       .  S
Co1657     N1677   2.071       .  S
Co1657     N1664   2.088       .  S
C1658      C2020   1.488       .  S
N1659      N2402   1.321   1_545  A
N1659      N1689   1.324       .  A
N1659     Co1692   2.088       .  S
N1660      N1696   1.326       .  A
N1661      C2426   1.353       .  A
N1661      N1671   1.327       .  A
H1662      C1687   1.082       .  S
N1663      N2392   1.321       .  A
N1663      N1684   1.322       .  A
N1664      N1669   1.325       .  A
C1665      C1693   1.460       .  S
C1665      C1921   1.488       .  S
N1666      C1681   1.343       .  A
N1666      N2395   1.321       .  A
N1666     Co1688   2.095       .  S
C1667      N1695   1.338       .  A
C1667      H1701   1.081       .  S
C1670      N1691   1.348   1_455  A
C1670      C1933   1.476   1_455  S
N1671      N2413   1.319       .  A
N1672      C1698   1.338       .  A
N1672      N2410   1.316       .  A
N1672     Co1688   2.077       .  S
N1673      C1687   1.341       .  A
N1674      N2408   1.316   1_545  A
N1674      N1702   1.323       .  A
N1674     Co1692   2.082       .  S
H1675      C1698   1.075       .  S
H1676      C1693   1.080       .  S
N1677      N2407   1.319   1_545  A
N1678     Co1692   2.093       .  S
N1679      N1691   1.324       .  A
N1679     Co1688   2.079       .  S
C1680      N2420   1.347   1_545  A
C1680      C1694   1.470       .  S
C1680      C2077   1.487       .  S
C1681      H1685   1.079       .  S
C1681      C2436   1.469       .  S
N1682      C1693   1.340       .  A
N1682     Co1692   2.077       .  S
N1684      C2416   1.347       .  A
C1686      N1702   1.352   1_565  A
C1686      C2434   1.464       .  S
C1686      C1912   1.490       .  S
Co1688    Cl2435   2.453       .  S
N1689      C1700   1.352   1_545  A
C1690      N2397   1.353   1_545  A
C1690      C1900   1.478       .  S
Co1692    Cl1699   2.454       .  S
C1698      C2422   1.464       .  S
Cl1699    Co2424   2.453   1_545  S
C1700      C2417   1.469       .  S
C1700      C2068   1.496       .  S
C1703      N1721   1.344   1_565  A
C1703      C2476   1.467       .  S
C1703      C2176   1.480       .  S
N1704      N1721   1.322       .  A
N1704      N2462   1.324   1_545  A
N1704     Co1741   2.071       .  S
C1705      N1730   1.336       .  A
C1705      H1750   1.080       .  S
C1705      C1743   1.460       .  S
H1706      C1747   1.081       .  S
C1707      N1731   1.344       .  A
C1707      H1736   1.082       .  S
C1707      C1711   1.466   1_545  S
Co1708     N1726   2.111       .  S
Co1708     N1716   2.100       .  S
Co1708     N1748   2.079       .  S
Co1708     N1724   2.100       .  S
N1709      C1747   1.342       .  A
N1709     Co1710   2.091       .  S
Co1710     N1713   2.083       .  S
Co1710     N1730   2.069       .  S
Co1710     N1717   2.091       .  S
Co1710    Cl2488   2.443   1_655  S
C1711      N2485   1.348       .  A
C1711      C2164   1.477       .  S
N1712      N1742   1.325       .  A
N1712     Co1745   2.091       .  S
N1713      N2467   1.321       .  A
N1713      N1749   1.323       .  A
N1714      N1724   1.328       .  A
H1715      C1740   1.082       .  S
N1716      N1737   1.327       .  A
N1717      N2471   1.318       .  A
N1717      N1722   1.326       .  A
C1718      N2458   1.352   1_545  A
C1718      C1746   1.453       .  S
C1718      C1888   1.478       .  S
N1719      C1734   1.344       .  A
N1719     Co1741   2.094       .  S
C1720      N1748   1.340       .  A
C1720      H1754   1.080       .  S
C1720      C2459   1.461       .  S
N1722      C2454   1.352       .  A
C1723      N1744   1.347       .  A
C1723      C2456   1.461   1_545  S
C1723      C1873   1.482       .  S
N1725      C1751   1.339       .  A
N1725     Co1741   2.070       .  S
N1726      C1740   1.346       .  A
N1726      N2440   1.324       .  A
N1727      N1755   1.325       .  A
N1727     Co1745   2.092       .  S
H1728      C1751   1.079       .  S
H1729      C1746   1.081       .  S
N1731      N2449   1.321   1_545  A
N1731     Co1745   2.097       .  S
N1732      N1744   1.322       .  A
N1732      N2484   1.319   1_545  A
N1732     Co1741   2.080       .  S
C1733      C1747   1.457       .  S
C1733      C1828   1.479       .  S
C1734      H1738   1.082       .  S
N1735      C1746   1.339       .  A
N1735      N2453   1.318   1_545  A
N1735     Co1745   2.075       .  S
C1739      N1755   1.351   1_455  A
C1739      C1849   1.484       .  S
C1740      C2439   1.467       .  S
N1742      C1753   1.352   1_655  A
C1743      C1861   1.494       .  S
Co1745    Cl1752   2.460   1_655  S
N1748      N2468   1.319       .  A
N1749      C2447   1.348       .  A
Cl1752    Co2446   2.443   1_445  S
C1753      C1837   1.489       .  S
N1756      C1761   1.351       .  A
N1756      C1760   1.352       .  A
N1756      H1788   1.038       .  S
N1757      C1764   1.351       .  A
N1757      C1765   1.351       .  A
N1758      C1763   1.352       .  A
N1758      C1762   1.352       .  A
N1758      H1789   1.038       .  S
N1759      C1766   1.350       .  A
N1759      C1767   1.350       .  A
C1760      C1768   1.387       .  A
C1760      C1776   1.412       .  A
C1761      C1777   1.410       .  A
C1761      C1769   1.386       .  A
C1762      C1770   1.387       .  A
C1762      C1779   1.413       .  A
C1763      C1778   1.412       .  A
C1763      C1771   1.386       .  A
C1764      C1776   1.412       .  A
C1764      C1772   1.387       .  A
C1765      C1779   1.412       .  A
C1765      C1773   1.387       .  A
C1766      C1774   1.387       .  A
C1766      C1777   1.410       .  A
C1767      C1775   1.386       .  A
C1767      C1778   1.410       .  A
C1768      C1769   1.380       .  A
C1768      H1780   1.082       .  S
C1769      H1781   1.082       .  S
C1770      C1771   1.379       .  A
C1770      H1782   1.082       .  S
C1771      H1783   1.082       .  S
C1772      C1773   1.369       .  A
C1772      H1784   1.082       .  S
C1773      H1785   1.082       .  S
C1774      C1775   1.369       .  A
C1774      H1786   1.082       .  S
C1775      H1787   1.083       .  S
C1776      C1852   1.484       .  S
C1777      C1924   1.482       .  S
C1778      C1936   1.486       .  S
C1779      C1864   1.485       .  S
N1790      C1795   1.351       .  A
N1790      C1794   1.350       .  A
N1790      H1822   1.039       .  S
N1791      C1798   1.351       .  A
N1791      C1799   1.351       .  A
N1792      C1797   1.350       .  A
N1792      C1796   1.350       .  A
N1792      H1823   1.038       .  S
N1793      C1800   1.350       .  A
N1793      C1801   1.350       .  A
C1794      C1802   1.386       .  A
C1794      C1810   1.411       .  A
C1795      C1811   1.414       .  A
C1795      C1803   1.387       .  A
C1796      C1804   1.387       .  A
C1796      C1813   1.412       .  A
C1797      C1812   1.410       .  A
C1797      C1805   1.386       .  A
C1798      C1810   1.413       .  A
C1798      C1806   1.388       .  A
C1799      C1813   1.412       .  A
C1799      C1807   1.386       .  A
C1800      C1808   1.387       .  A
C1800      C1811   1.412       .  A
C1801      C1809   1.387       .  A
C1801      C1812   1.412       .  A
C1802      C1803   1.379       .  A
C1802      H1814   1.082       .  S
C1803      H1815   1.082       .  S
C1804      C1805   1.379       .  A
C1804      H1816   1.082       .  S
C1805      H1817   1.082       .  S
C1806      C1807   1.366       .  A
C1806      H1818   1.082       .  S
C1807      H1819   1.082       .  S
C1808      C1809   1.368       .  A
C1808      H1820   1.082       .  S
C1809      H1821   1.082       .  S
C1810      C1909   1.481       .  S
C1811      C1885   1.488       .  S
C1812      C1876   1.482       .  S
C1813      C1897   1.483       .  S
C1824      C1825   1.572       .  S
C1824      C1840   1.586       .  S
C1824      C1948   1.580       .  S
C1825      C1826   1.418       .  A
C1826      C1827   1.405       .  A
C1826      H1831   1.079       .  S
C1827      C1834   1.444       .  S
C1828      C1829   1.394       .  A
C1829      C1830   1.403       .  A
C1829      H1832   1.085       .  S
C1830      C1833   1.445       .  S
C1833      N1835   1.157       .  T
C1834      N1836   1.157       .  T
C1837      C1842   1.403   1_455  A
C1838      C1839   1.409       .  A
C1838      H1843   1.084       .  S
C1839      C1840   1.431       .  A
C1839      C1846   1.442       .  S
C1841      C1842   1.400       .  A
C1841      H1844   1.079       .  S
C1842      C1845   1.446       .  S
C1845      N1847   1.157       .  T
C1846      N1848   1.157       .  T
C1849      C1850   1.408   1_455  A
C1850      H1855   1.085       .  S
C1851      C1852   1.407       .  A
C1852      C1853   1.400       .  A
C1853      C1854   1.398       .  A
C1853      H1856   1.085       .  S
C1854      C1857   1.443       .  S
C1857      N1859   1.157       .  T
C1858      N1860   1.157       .  T
C1861      C1862   1.411       .  A
C1862      C1863   1.397       .  A
C1862      H1867   1.081       .  S
C1863      C1870   1.445       .  S
C1864      C1865   1.401       .  A
C1865      C1866   1.403       .  A
C1865      H1868   1.085       .  S
C1866      C1869   1.442       .  S
C1869      N1871   1.157       .  T
C1870      N1872   1.157       .  T
C1873      C2610   1.406   1_545  A
C1873      C1878   1.417       .  A
C1874      C2609   1.406       .  A
C1874      C1875   1.398       .  A
C1874      H1879   1.083       .  S
C1875      C1876   1.406       .  A
C1875      C1882   1.443       .  S
C1876      C2613   1.401       .  A
C1877      C2612   1.401       .  A
C1877      C1878   1.399       .  A
C1877      H1880   1.085       .  S
C1878      C1881   1.444       .  S
C1881      N1883   1.157       .  T
C1882      N1884   1.157       .  T
C1885      C1886   1.401       .  A
C1885      C2626   1.412       .  A
C1886      C1887   1.399       .  A
C1886      H1891   1.085       .  S
C1887      C2624   1.411       .  A
C1887      C1894   1.439       .  S
C1888      C2623   1.411   1_545  A
C1888      C1889   1.403       .  A
C1889      C1890   1.398       .  A
C1889      H1892   1.084       .  S
C1890      C2621   1.412       .  A
C1890      C1893   1.444       .  S
C1893      N1895   1.157       .  T
C1894      N1896   1.156       .  T
C1897      C1898   1.401       .  A
C1897      C2638   1.409       .  A
C1898      C1899   1.401       .  A
C1898      H1903   1.085       .  S
C1899      C2636   1.413       .  A
C1899      C1906   1.442       .  S
C1900      C2635   1.413   1_545  A
C1900      C1901   1.405       .  A
C1901      C1902   1.396       .  A
C1901      H1904   1.084       .  S
C1902      C2633   1.409       .  A
C1902      C1905   1.445       .  S
C1905      N1907   1.157       .  T
C1906      N1908   1.157       .  T
C1909      C1910   1.398       .  A
C1909      C2650   1.405       .  A
C1910      C1911   1.398       .  A
C1910      H1915   1.086       .  S
C1911      C2648   1.421       .  A
C1911      C1918   1.442       .  S
C1912      C2647   1.421       .  A
C1912      C1913   1.410   1_565  A
C1913      C1914   1.399       .  A
C1913      H1916   1.084       .  S
C1914      C2645   1.405       .  A
C1914      C1917   1.443       .  S
C1917      N1919   1.157       .  T
C1918      N1920   1.158       .  T
C1921      C1922   1.410       .  A
C1922      C1923   1.400       .  A
C1922      H1927   1.083       .  S
C1923      C1930   1.443       .  S
C1924      C1925   1.399       .  A
C1925      C1926   1.400       .  A
C1925      H1928   1.085       .  S
C1926      C1929   1.443       .  S
C1929      N1931   1.157       .  T
C1930      N1932   1.157       .  T
C1933      C1934   1.406       .  A
C1934      C1935   1.401       .  A
C1934      H1939   1.084       .  S
C1935      C1942   1.443       .  S
C1936      C1937   1.403       .  A
C1937      C1938   1.397       .  A
C1937      H1940   1.085       .  S
C1938      C1941   1.444       .  S
C1941      N1943   1.157       .  T
C1942      N1944   1.157       .  T
C1945      C1946   1.394       .  A
C1945      C1950   1.408       .  A
C1946      C1947   1.403       .  A
C1946      H1951   1.086       .  S
C1947      C1948   1.440       .  A
C1947      C1954   1.443       .  S
C1948      C1949   1.420       .  A
C1949      C1950   1.403       .  A
C1949      H1952   1.084       .  S
C1950      C1953   1.444       .  S
C1953      N1955   1.157       .  T
C1954      N1956   1.158       .  T
C1957      C1958   1.391       .  A
C1957      C1962   1.405       .  A
C1958      C1959   1.399       .  A
C1958      H1963   1.086       .  S
C1959      C1960   1.435       .  A
C1959      C1966   1.444       .  S
C1960      C1961   1.420       .  A
C1961      C1962   1.404       .  A
C1961      H1964   1.079       .  S
C1962      C1965   1.445       .  S
C1965      N1967   1.157       .  T
C1966      N1968   1.157       .  T
C1969      C1970   1.399       .  A
C1969      C1974   1.405       .  A
C1970      C1971   1.396       .  A
C1970      H1975   1.085       .  S
C1971      C1972   1.417       .  A
C1971      C1978   1.443       .  S
C1972      C1973   1.408       .  A
C1973      C1974   1.397       .  A
C1973      H1976   1.082       .  S
C1974      C1977   1.444       .  S
C1977      N1979   1.157       .  T
C1978      N1980   1.157       .  T
C1981      C1982   1.399       .  A
C1981      C1986   1.407       .  A
C1982      C1983   1.399       .  A
C1982      H1987   1.085       .  S
C1983      C1984   1.420       .  A
C1983      C1990   1.444       .  S
C1984      C1985   1.407       .  A
C1985      C1986   1.398       .  A
C1985      H1988   1.083       .  S
C1986      C1989   1.444       .  S
C1989      N1991   1.157       .  T
C1990      N1992   1.157       .  T
C1993      C1994   1.398       .  A
C1993      C1998   1.407       .  A
C1994      C1995   1.392       .  A
C1994      H1999   1.086       .  S
C1995      C1996   1.416       .  A
C1995      C2002   1.444       .  S
C1996      C1997   1.407       .  A
C1997      C1998   1.401       .  A
C1997      H2000   1.085       .  S
C1998      C2001   1.443       .  S
C2001      N2003   1.157       .  T
C2002      N2004   1.158       .  T
C2005      C2006   1.397       .  A
C2005      C2010   1.406       .  A
C2006      C2007   1.398       .  A
C2006      H2011   1.086       .  S
C2007      C2008   1.421       .  A
C2007      C2014   1.440       .  S
C2008      C2009   1.410       .  A
C2009      C2010   1.400       .  A
C2009      H2012   1.084       .  S
C2010      C2013   1.444       .  S
C2013      N2015   1.157       .  T
C2014      N2016   1.157       .  T
C2017      C2022   1.433       .  A
C2018      C2019   1.399       .  A
C2018      H2023   1.078       .  S
C2019      C2026   1.446       .  S
C2020      C2021   1.401       .  A
C2021      C2022   1.410       .  A
C2021      H2024   1.085       .  S
C2022      C2025   1.442       .  S
C2025      N2027   1.157       .  T
C2026      N2028   1.157       .  T
C2029      C2030   1.417       .  A
C2030      C2031   1.406       .  A
C2030      H2035   1.079       .  S
C2031      C2032   1.407       .  A
C2031      C2038   1.444       .  S
C2033      C2034   1.401       .  A
C2033      H2036   1.085       .  S
C2034      C2037   1.445       .  S
C2037      N2039   1.157       .  T
C2038      N2040   1.157   1_455  T
C2041      C2042   1.420       .  A
C2041      C2046   1.436       .  A
C2042      C2043   1.408       .  A
C2042      H2047   1.079       .  S
C2043      C2044   1.408       .  A
C2043      C2050   1.444       .  S
C2044      C2045   1.394       .  A
C2045      C2046   1.403       .  A
C2045      H2048   1.085       .  S
C2046      C2049   1.445       .  S
C2049      N2051   1.157       .  T
C2050      N2052   1.157       .  T
C2053      C2054   1.391       .  A
C2053      C2058   1.412       .  A
C2054      C2055   1.399       .  A
C2054      H2059   1.086       .  S
C2055      C2056   1.443       .  A
C2055      C2062   1.444       .  S
C2056      C2057   1.418       .  A
C2057      C2058   1.406       .  A
C2057      H2060   1.084       .  S
C2058      C2061   1.444       .  S
C2061      N2063   1.157       .  T
C2062      N2064   1.158       .  T
C2065      C2802   1.417       .  A
C2065      C2070   1.432   1_565  A
C2066      C2801   1.417       .  A
C2066      C2067   1.404       .  A
C2066      H2071   1.083       .  S
C2067      C2804   1.413       .  A
C2067      C2074   1.442       .  S
C2068      C2803   1.413       .  A
C2068      C2069   1.402   1_565  A
C2069      C2070   1.403       .  A
C2069      H2072   1.085       .  S
C2070      C2073   1.444       .  S
C2073      N2075   1.158       .  T
C2074      N2076   1.158       .  T
C2077      C2814   1.403   1_545  A
C2077      C2082   1.409       .  A
C2078      C2813   1.403       .  A
C2078      C2079   1.402       .  A
C2078      H2083   1.085       .  S
C2079      C2816   1.427       .  A
C2079      C2086   1.444       .  S
C2080      C2815   1.427       .  A
C2080      C2081   1.417   1_565  A
C2081      C2082   1.401       .  A
C2081      H2084   1.081       .  S
C2082      C2085   1.443       .  S
C2085      N2087   1.157       .  T
C2086      N2088   1.158       .  T
C2089      C2090   1.418       .  A
C2089      C2094   1.436       .  A
C2090      C2091   1.405       .  A
C2090      H2095   1.084       .  S
C2091      C2092   1.413       .  A
C2091      C2098   1.442       .  S
C2092      C2093   1.397       .  A
C2093      C2094   1.399       .  A
C2093      H2096   1.086       .  S
C2094      C2097   1.443       .  S
C2097      N2099   1.158       .  T
C2098      N2100   1.158       .  T
C2101      C2102   1.401       .  A
C2101      C2106   1.409       .  A
C2102      C2103   1.405       .  A
C2102      H2107   1.084       .  S
C2103      C2104   1.430       .  A
C2103      C2110   1.440       .  S
C2104      C2244   1.581       .  S
C2104      C2105   1.421       .  A
C2105      C2106   1.403       .  A
C2105      H2108   1.080       .  S
C2106      C2109   1.445       .  S
C2109      N2111   1.157       .  T
C2110      N2112   1.157       .  T
C2113      C2114   1.400       .  A
C2113      C2118   1.406       .  A
C2114      C2115   1.394       .  A
C2114      H2119   1.086       .  S
C2115      C2116   1.415       .  A
C2115      C2122   1.444       .  S
C2116      C2117   1.406       .  A
C2117      C2118   1.400       .  A
C2117      H2120   1.085       .  S
C2118      C2121   1.443       .  S
C2121      N2123   1.157       .  T
C2122      N2124   1.157       .  T
C2125      C2126   1.399       .  A
C2125      C2130   1.414       .  A
C2126      C2127   1.398       .  A
C2126      H2131   1.085       .  S
C2127      C2128   1.413       .  A
C2127      C2134   1.439       .  S
C2128      C2129   1.403       .  A
C2129      C2130   1.402       .  A
C2129      H2132   1.085       .  S
C2130      C2133   1.444       .  S
C2133      N2135   1.157       .  T
C2134      N2136   1.156       .  T
C2137      C2138   1.404       .  A
C2137      C2142   1.411       .  A
C2138      C2139   1.400       .  A
C2138      H2143   1.083       .  S
C2139      C2140   1.409       .  A
C2139      C2146   1.444       .  S
C2140      C2141   1.402       .  A
C2141      C2142   1.395       .  A
C2141      H2144   1.085       .  S
C2142      C2145   1.444       .  S
C2145      N2147   1.157       .  T
C2146      N2148   1.157       .  T
C2149      C2150   1.408       .  A
C2149      C2154   1.416       .  A
C2150      C2151   1.401       .  A
C2150      H2155   1.084       .  S
C2151      C2152   1.407       .  A
C2151      C2158   1.444       .  S
C2152      C2153   1.401       .  A
C2153      C2154   1.398       .  A
C2153      H2156   1.085       .  S
C2154      C2157   1.444       .  S
C2157      N2159   1.157       .  T
C2158      N2160   1.157       .  T
C2161      C2209   1.574       .  S
C2161      C2162   1.424       .  A
C2161      C2902   1.436       .  A
C2162      C2163   1.400       .  A
C2162      H2167   1.083       .  S
C2163      C2164   1.399       .  A
C2163      C2170   1.444       .  S
C2164      C2901   1.397       .  A
C2165      C2900   1.397       .  A
C2165      C2166   1.407       .  A
C2165      H2168   1.086       .  S
C2166      C2897   1.436       .  A
C2166      C2169   1.440       .  S
C2169      N2171   1.158       .  T
C2170      N2172   1.157       .  T
C2173      C2209   1.570       .  S
C2173      C2174   1.413   1_565  A
C2173      C2914   1.439       .  A
C2174      C2175   1.403       .  A
C2174      H2179   1.082       .  S
C2175      C2176   1.411   1_545  A
C2175      C2182   1.444       .  S
C2176      C2913   1.392       .  A
C2177      C2912   1.392       .  A
C2177      C2178   1.400       .  A
C2177      H2180   1.086       .  S
C2178      C2909   1.439       .  A
C2178      C2181   1.445       .  S
C2181      N2183   1.158       .  T
C2182      N2184   1.157       .  T
C2185      C2186   1.394       .  A
C2185      C2190   1.410       .  A
C2186      C2187   1.402       .  A
C2186      H2191   1.086       .  S
C2187      C2188   1.440       .  A
C2187      C2194   1.445       .  S
C2188      C2209   1.585   1_545  S
C2188      C2189   1.419       .  A
C2189      C2190   1.409       .  A
C2189      H2192   1.082       .  S
C2190      C2193   1.443       .  S
C2193      N2195   1.157       .  T
C2194      N2196   1.158       .  T
C2197      C2198   1.419       .  A
C2197      C2202   1.435       .  A
C2198      C2199   1.406       .  A
C2198      H2203   1.080       .  S
C2199      C2200   1.406       .  A
C2199      C2206   1.444       .  S
C2200      C2201   1.390       .  A
C2201      C2202   1.399       .  A
C2201      H2204   1.086       .  S
C2202      C2205   1.442       .  S
C2205      N2207   1.157       .  T
C2206      N2208   1.157       .  T
C2209      C2933   1.573       .  S
N2210      C2215   1.353       .  A
N2210      C2214   1.351   1_554  A
N2210      H2242   1.039       .  S
N2211      C2219   1.351       .  A
N2212      C2217   1.349       .  A
N2212      C2216   1.350   1_554  A
N2212      H2243   1.040       .  S
N2213      C2221   1.349       .  A
C2214      C2222   1.386       .  A
C2214      C2230   1.412       .  A
C2215      C2231   1.414       .  A
C2215      C2223   1.387       .  A
C2216      C2224   1.387       .  A
C2216      C2233   1.410       .  A
C2217      C2232   1.408       .  A
C2217      C2225   1.386       .  A
C2218      C2230   1.413       .  A
C2218      C2226   1.387       .  A
C2219      C2233   1.413       .  A
C2219      C2227   1.386       .  A
C2220      C2228   1.386       .  A
C2220      C2231   1.410       .  A
C2221      C2229   1.387       .  A
C2221      C2232   1.409       .  A
C2222      C2223   1.380   1_556  A
C2222      H2234   1.082       .  S
C2223      H2235   1.082       .  S
C2224      C2225   1.378   1_556  A
C2224      H2236   1.082       .  S
C2225      H2237   1.082       .  S
C2226      H2238   1.082       .  S
C2227      H2239   1.083       .  S
C2228      H2240   1.082       .  S
C2229      H2241   1.083       .  S
C2230      C2888   1.484       .  S
C2231      C2861   1.489       .  S
C2232      C2849   1.479       .  S
C2233      C2876   1.484       .  S
C2244      C2801   1.580       .  S
C2244      C2816   1.565       .  S
C2244      C2825   1.571       .  S
C2245      C2777   1.585       .  S
N2246      C2251   1.351   1_554  A
N2246      C2250   1.350       .  A
N2246      H2278   1.035       .  S
N2247      C2255   1.352       .  A
N2248      C2253   1.352   1_554  A
N2248      C2252   1.350       .  A
N2248      H2279   1.032       .  S
N2249      C2257   1.351       .  A
C2250      C2258   1.387       .  A
C2250      C2266   1.410       .  A
C2251      C2267   1.411       .  A
C2251      C2259   1.387       .  A
C2252      C2260   1.387       .  A
C2252      C2269   1.413       .  A
C2253      C2268   1.414       .  A
C2253      C2261   1.387       .  A
C2254      C2266   1.414       .  A
C2254      C2262   1.387       .  A
C2255      C2269   1.415       .  A
C2255      C2263   1.387       .  A
C2256      C2264   1.386       .  A
C2256      C2267   1.411       .  A
C2257      C2265   1.388       .  A
C2257      C2268   1.414       .  A
C2258      C2259   1.377   1_554  A
C2258      H2270   1.082       .  S
C2259      H2271   1.082       .  S
C2260      C2261   1.379   1_554  A
C2260      H2272   1.082       .  S
C2261      H2273   1.082       .  S
C2262      H2274   1.082       .  S
C2263      H2275   1.082       .  S
C2264      H2276   1.083       .  S
C2265      H2277   1.082       .  S
C2266      C2705   1.479       .  S
C2267      C2729   1.480       .  S
C2268      C2741   1.483       .  S
C2269      C2717   1.482       .  S
C2280      N2298   1.350       .  A
C2280      C2317   1.460       .  S
C2280      C2885   1.484       .  S
N2281      N2298   1.323       .  A
N2281      N2303   1.317       .  A
N2281     Co2318   2.085       .  S
C2282      N2307   1.342       .  A
C2282      H2327   1.081       .  S
C2282      C2320   1.467       .  S
H2283      C2324   1.076       .  S
C2284      N2308   1.337       .  A
C2284      H2313   1.081       .  S
C2284      C2288   1.453       .  S
Co2285     N2303   2.074       .  S
Co2285     N2293   2.086       .  S
Co2285     N2325   2.104       .  S
Co2285     N2301   2.091       .  S
Co2285    Cl2329   2.455       .  S
N2286      C2324   1.338       .  A
N2286      N2293   1.315       .  A
N2286     Co2287   2.071       .  S
Co2287     N2290   2.087       .  S
Co2287     N2307   2.094       .  S
Co2287     N2294   2.087       .  S
Co2287    Cl2329   2.449       .  S
C2288      N2326   1.351       .  A
C2288      C2873   1.474       .  S
N2289      N2296   1.317       .  A
N2289      N2319   1.326       .  A
N2289     Co2322   2.094       .  S
N2290      N2308   1.318       .  A
N2290      N2326   1.325       .  A
N2291      C2320   1.352       .  A
N2291      N2301   1.325       .  A
H2292      C2317   1.081       .  S
N2293      N2314   1.324       .  A
N2294      N2312   1.324       .  A
N2294      N2299   1.325       .  A
C2295      N2299   1.347       .  A
C2295      C2323   1.467       .  S
C2295      C2780   1.484       .  S
N2296      C2311   1.333       .  A
N2296     Co2318   2.057       .  S
C2297      N2325   1.343       .  A
C2297      H2331   1.082       .  S
C2297      C2300   1.468       .  S
C2300      N2321   1.347       .  A
C2300      C2789   1.487       .  S
N2301      N2307   1.322       .  A
N2302      C2328   1.342       .  A
N2302      N2304   1.322       .  A
N2302     Co2318   2.089       .  S
N2303      C2317   1.340       .  A
N2304      N2332   1.323       .  A
N2304     Co2322   2.090       .  S
H2305      C2328   1.079       .  S
H2306      C2323   1.082       .  S
N2308     Co2322   2.067       .  S
N2309      N2321   1.324       .  A
N2309      N2325   1.322       .  A
N2309     Co2318   2.072       .  S
C2310      N2314   1.353       .  A
C2310      C2324   1.464       .  S
C2310      C2744   1.491       .  S
C2311      H2315   1.079       .  S
C2311      C2330   1.453       .  S
N2312      C2323   1.348       .  A
N2312     Co2322   2.112       .  S
C2316      N2332   1.352       .  A
C2316      C2328   1.465       .  S
C2316      C2828   1.491       .  S
Co2318    Cl2329   2.448       .  S
N2319      C2330   1.353       .  A
C2320      C2837   1.493       .  S
Co2322    Cl2329   2.457       .  S
C2330      C2732   1.479       .  S
C2333      N2351   1.346       .  A
C2333      C2370   1.462       .  S
C2333      C2936   1.474       .  S
N2334      N2351   1.324       .  A
N2334      N2356   1.323       .  A
N2334     Co2371   2.079       .  S
C2335      N2360   1.336       .  A
C2335      H2380   1.078       .  S
C2335      C2373   1.455       .  S
H2336      C2377   1.081       .  S
C2337      N2361   1.342       .  A
C2337      H2366   1.082       .  S
C2337      C2341   1.462       .  S
Co2338     N2356   2.099       .  S
Co2338     N2346   2.099       .  S
Co2338     N2378   2.085       .  S
Co2338     N2354   2.080       .  S
Co2338    Cl2382   2.455       .  S
N2339      C2377   1.342       .  A
N2339      N2346   1.324       .  A
N2339     Co2340   2.091       .  S
Co2340     N2343   2.097       .  S
Co2340     N2360   2.072       .  S
Co2340     N2347   2.077       .  S
Co2340    Cl2382   2.452       .  S
C2341      N2379   1.352       .  A
C2341      C2921   1.491       .  S
N2342      N2349   1.321       .  A
N2342      N2372   1.326       .  A
N2342     Co2375   2.093       .  S
N2343      N2361   1.323       .  A
N2343      N2379   1.328       .  A
N2344      C2373   1.351       .  A
N2344      N2354   1.324       .  A
H2345      C2370   1.082       .  S
N2346      N2367   1.326       .  A
N2347      N2365   1.317       .  A
N2347      N2352   1.322       .  A
C2348      N2352   1.348       .  A
C2348      C2376   1.460       .  S
C2348      C2708   1.483       .  S
N2349      C2364   1.338       .  A
N2349     Co2371   2.079       .  S
C2350      N2378   1.342       .  A
C2350      H2384   1.081       .  S
C2350      C2353   1.465       .  S
C2353      N2374   1.348       .  A
C2353      C2720   1.486       .  S
N2354      N2360   1.318       .  A
N2355      C2381   1.339       .  A
N2355      N2357   1.318       .  A
N2355     Co2371   2.078       .  S
N2356      C2370   1.344       .  A
N2357      N2385   1.327       .  A
N2357     Co2375   2.089       .  S
H2358      C2381   1.080       .  S
H2359      C2376   1.080       .  S
N2361     Co2375   2.098       .  S
N2362      N2374   1.321       .  A
N2362      N2378   1.317       .  A
N2362     Co2371   2.073       .  S
C2363      N2367   1.352       .  A
C2363      C2377   1.462       .  S
C2363      C2681   1.487       .  S
C2364      H2368   1.082       .  S
C2364      C2383   1.456       .  S
N2365      C2376   1.338       .  A
N2365     Co2375   2.075       .  S
C2369      N2385   1.350       .  A
C2369      C2381   1.458       .  S
C2369      C2864   1.481       .  S
Co2371    Cl2382   2.448       .  S
N2372      C2383   1.352       .  A
C2373      C2852   1.476       .  S
Co2375    Cl2382   2.457       .  S
C2383      C2693   1.472       .  S
C2386      N2404   1.353   1_455  A
C2386      C2768   1.477       .  S
N2387      N2404   1.326       .  A
N2387     Co2424   2.099       .  S
C2388      N2413   1.335       .  A
C2388      H2433   1.080       .  S
C2388      C2426   1.452       .  S
H2389      C2430   1.080       .  S
C2390      N2414   1.343       .  A
C2390      H2419   1.082       .  S
C2390      C2394   1.463       .  S
Co2391     N2409   2.089       .  S
Co2391     N2399   2.076       .  S
Co2391     N2431   2.069       .  S
Co2391     N2407   2.090       .  S
N2392      C2430   1.344       .  A
N2392     Co2393   2.096       .  S
Co2393     N2396   2.097       .  S
Co2393     N2413   2.071       .  S
Co2393     N2400   2.088       .  S
C2394      C2756   1.488       .  S
N2395      N2425   1.324       .  A
N2395     Co2428   2.088       .  S
N2396      N2432   1.326       .  A
N2397      N2407   1.327       .  A
H2398      C2423   1.082       .  S
N2399      N2420   1.322       .  A
N2400      N2405   1.325       .  A
C2401      C2429   1.460       .  S
C2401      C2657   1.488       .  S
N2402      C2417   1.343       .  A
N2402     Co2424   2.095       .  S
C2403      N2431   1.338       .  A
C2403      H2437   1.081       .  S
C2406      N2427   1.348   1_455  A
C2406      C2669   1.476   1_455  S
N2408      C2434   1.338       .  A
N2408     Co2424   2.077       .  S
N2409      C2423   1.341       .  A
N2410      N2438   1.323       .  A
N2410     Co2428   2.082       .  S
H2411      C2434   1.075       .  S
H2412      C2429   1.080       .  S
N2414     Co2428   2.093       .  S
N2415      N2427   1.324       .  A
N2415     Co2424   2.079       .  S
C2416      C2430   1.470       .  S
C2416      C2813   1.487       .  S
C2417      H2421   1.079       .  S
N2418      C2429   1.340       .  A
N2418     Co2428   2.077       .  S
C2422      N2438   1.352       .  A
C2422      C2648   1.490       .  S
N2425      C2436   1.352       .  A
C2426      C2636   1.478       .  S
Co2428    Cl2435   2.454       .  S
C2436      C2804   1.496       .  S
C2439      N2457   1.344       .  A
C2439      C2912   1.480       .  S
N2440      N2457   1.322       .  A
N2440     Co2477   2.071       .  S
C2441      N2466   1.336       .  A
C2441      H2486   1.080       .  S
C2441      C2479   1.460       .  S
H2442      C2483   1.081       .  S
C2443      N2467   1.344       .  A
C2443      H2472   1.082       .  S
C2443      C2447   1.466       .  S
Co2444     N2462   2.111       .  S
Co2444     N2452   2.100       .  S
Co2444     N2484   2.079       .  S
Co2444     N2460   2.100       .  S
N2445      C2483   1.342       .  A
N2445     Co2446   2.091       .  S
Co2446     N2449   2.083       .  S
Co2446     N2466   2.069       .  S
Co2446     N2453   2.091       .  S
C2447      C2900   1.477       .  S
N2448      N2478   1.325       .  A
N2448     Co2481   2.091       .  S
N2449      N2485   1.323       .  A
N2450      N2460   1.328       .  A
H2451      C2476   1.082       .  S
N2452      N2473   1.327       .  A
N2453      N2458   1.326       .  A
C2454      C2482   1.453       .  S
C2454      C2624   1.478       .  S
N2455      C2470   1.344       .  A
N2455     Co2477   2.094       .  S
C2456      N2484   1.340       .  A
C2456      H2490   1.080       .  S
C2459      N2480   1.347       .  A
C2459      C2609   1.482       .  S
N2461      C2487   1.339       .  A
N2461     Co2477   2.070       .  S
N2462      C2476   1.346       .  A
N2463      N2491   1.325       .  A
N2463     Co2481   2.092       .  S
H2464      C2487   1.079       .  S
H2465      C2482   1.081       .  S
N2467     Co2481   2.097       .  S
N2468      N2480   1.322       .  A
N2468     Co2477   2.080       .  S
C2469      C2483   1.457       .  S
C2469      C2564   1.479       .  S
C2470      H2474   1.082       .  S
N2471      C2482   1.339       .  A
N2471     Co2481   2.075       .  S
C2475      N2491   1.351   1_455  A
C2475      C2585   1.484       .  S
N2478      C2489   1.352   1_655  A
C2479      C2597   1.494       .  S
Co2481    Cl2488   2.460   1_655  S
C2489      C2573   1.489       .  S
N2492      C2497   1.351       .  A
N2492      C2496   1.352       .  A
N2492      H2524   1.038       .  S
N2493      C2500   1.351       .  A
N2493      C2501   1.351       .  A
N2494      C2499   1.352       .  A
N2494      C2498   1.352       .  A
N2494      H2525   1.038       .  S
N2495      C2502   1.350       .  A
N2495      C2503   1.350       .  A
C2496      C2504   1.387       .  A
C2496      C2512   1.412       .  A
C2497      C2513   1.410       .  A
C2497      C2505   1.386       .  A
C2498      C2506   1.387       .  A
C2498      C2515   1.413       .  A
C2499      C2514   1.412       .  A
C2499      C2507   1.386       .  A
C2500      C2512   1.412       .  A
C2500      C2508   1.387       .  A
C2501      C2515   1.412       .  A
C2501      C2509   1.387       .  A
C2502      C2510   1.387       .  A
C2502      C2513   1.410       .  A
C2503      C2511   1.386       .  A
C2503      C2514   1.410       .  A
C2504      C2505   1.380       .  A
C2504      H2516   1.082       .  S
C2505      H2517   1.082       .  S
C2506      C2507   1.379       .  A
C2506      H2518   1.082       .  S
C2507      H2519   1.082       .  S
C2508      C2509   1.369       .  A
C2508      H2520   1.082       .  S
C2509      H2521   1.082       .  S
C2510      C2511   1.369       .  A
C2510      H2522   1.082       .  S
C2511      H2523   1.083       .  S
C2512      C2588   1.484       .  S
C2513      C2660   1.482       .  S
C2514      C2672   1.486       .  S
C2515      C2600   1.485       .  S
N2526      C2531   1.351       .  A
N2526      C2530   1.350       .  A
N2526      H2558   1.039       .  S
N2527      C2534   1.351       .  A
N2527      C2535   1.351       .  A
N2528      C2533   1.350       .  A
N2528      C2532   1.350       .  A
N2528      H2559   1.038       .  S
N2529      C2536   1.350       .  A
N2529      C2537   1.350       .  A
C2530      C2538   1.386       .  A
C2530      C2546   1.411       .  A
C2531      C2547   1.414       .  A
C2531      C2539   1.387       .  A
C2532      C2540   1.387       .  A
C2532      C2549   1.412       .  A
C2533      C2548   1.410       .  A
C2533      C2541   1.386       .  A
C2534      C2546   1.413       .  A
C2534      C2542   1.388   1_545  A
C2535      C2549   1.412       .  A
C2535      C2543   1.386   1_545  A
C2536      C2544   1.387       .  A
C2536      C2547   1.412       .  A
C2537      C2545   1.387       .  A
C2537      C2548   1.412       .  A
C2538      C2539   1.379       .  A
C2538      H2550   1.082       .  S
C2539      H2551   1.082       .  S
C2540      C2541   1.379       .  A
C2540      H2552   1.082       .  S
C2541      H2553   1.082       .  S
C2542      C2543   1.366       .  A
C2542      H2554   1.082       .  S
C2543      H2555   1.082       .  S
C2544      C2545   1.368       .  A
C2544      H2556   1.082   1_545  S
C2545      H2557   1.082   1_545  S
C2546      C2645   1.481       .  S
C2547      C2621   1.488       .  S
C2548      C2612   1.482       .  S
C2549      C2633   1.483       .  S
C2560      C2561   1.572       .  S
C2560      C2576   1.586       .  S
C2560      C2684   1.580       .  S
C2561      C2562   1.418       .  A
C2562      C2563   1.405       .  A
C2562      H2567   1.079       .  S
C2563      C2570   1.444       .  S
C2564      C2565   1.394       .  A
C2565      C2566   1.403       .  A
C2565      H2568   1.085       .  S
C2566      C2569   1.445       .  S
C2569      N2571   1.157       .  T
C2570      N2572   1.157       .  T
C2573      C2578   1.403   1_455  A
C2574      C2575   1.409       .  A
C2574      H2579   1.084       .  S
C2575      C2576   1.431       .  A
C2575      C2582   1.442       .  S
C2577      C2578   1.400       .  A
C2577      H2580   1.079       .  S
C2578      C2581   1.446       .  S
C2581      N2583   1.157       .  T
C2582      N2584   1.157       .  T
C2585      C2586   1.408   1_455  A
C2586      H2591   1.085       .  S
C2587      C2588   1.407       .  A
C2588      C2589   1.400       .  A
C2589      C2590   1.398       .  A
C2589      H2592   1.085       .  S
C2590      C2593   1.443       .  S
C2593      N2595   1.157       .  T
C2594      N2596   1.157       .  T
C2597      C2598   1.411       .  A
C2598      C2599   1.397       .  A
C2598      H2603   1.081       .  S
C2599      C2606   1.445       .  S
C2600      C2601   1.401       .  A
C2601      C2602   1.403       .  A
C2601      H2604   1.085       .  S
C2602      C2605   1.442       .  S
C2605      N2607   1.157       .  T
C2606      N2608   1.157       .  T
C2609      C2614   1.417       .  A
C2610      C2611   1.398       .  A
C2610      H2615   1.083       .  S
C2611      C2612   1.406   1_565  A
C2611      C2618   1.443       .  S
C2613      C2614   1.399       .  A
C2613      H2616   1.085       .  S
C2614      C2617   1.444       .  S
C2617      N2619   1.157       .  T
C2618      N2620   1.157       .  T
C2621      C2622   1.401   1_545  A
C2622      C2623   1.399       .  A
C2622      H2627   1.085       .  S
C2623      C2630   1.439       .  S
C2624      C2625   1.403       .  A
C2625      C2626   1.398       .  A
C2625      H2628   1.084       .  S
C2626      C2629   1.444       .  S
C2629      N2631   1.157       .  T
C2630      N2632   1.156       .  T
C2633      C2634   1.401   1_545  A
C2634      C2635   1.401       .  A
C2634      H2639   1.085       .  S
C2635      C2642   1.442       .  S
C2636      C2637   1.405       .  A
C2637      C2638   1.396       .  A
C2637      H2640   1.084       .  S
C2638      C2641   1.445       .  S
C2641      N2643   1.157       .  T
C2642      N2644   1.157       .  T
C2645      C2646   1.398   1_545  A
C2646      C2647   1.398       .  A
C2646      H2651   1.086       .  S
C2647      C2654   1.442       .  S
C2648      C2649   1.410       .  A
C2649      C2650   1.399       .  A
C2649      H2652   1.084       .  S
C2650      C2653   1.443       .  S
C2653      N2655   1.157       .  T
C2654      N2656   1.158       .  T
C2657      C2658   1.410       .  A
C2658      C2659   1.400       .  A
C2658      H2663   1.083       .  S
C2659      C2666   1.443       .  S
C2660      C2661   1.399       .  A
C2661      C2662   1.400       .  A
C2661      H2664   1.085       .  S
C2662      C2665   1.443       .  S
C2665      N2667   1.157       .  T
C2666      N2668   1.157       .  T
C2669      C2670   1.406       .  A
C2670      C2671   1.401       .  A
C2670      H2675   1.084       .  S
C2671      C2678   1.443       .  S
C2672      C2673   1.403       .  A
C2673      C2674   1.397       .  A
C2673      H2676   1.085       .  S
C2674      C2677   1.444       .  S
C2677      N2679   1.157       .  T
C2678      N2680   1.157       .  T
C2681      C2682   1.394       .  A
C2681      C2686   1.408       .  A
C2682      C2683   1.403       .  A
C2682      H2687   1.086       .  S
C2683      C2684   1.440       .  A
C2683      C2690   1.443       .  S
C2684      C2685   1.420       .  A
C2685      C2686   1.403       .  A
C2685      H2688   1.084       .  S
C2686      C2689   1.444       .  S
C2689      N2691   1.157       .  T
C2690      N2692   1.158       .  T
C2693      C2694   1.391       .  A
C2693      C2698   1.405       .  A
C2694      C2695   1.399       .  A
C2694      H2699   1.086       .  S
C2695      C2696   1.435       .  A
C2695      C2702   1.444       .  S
C2696      C2697   1.420       .  A
C2697      C2698   1.404       .  A
C2697      H2700   1.079       .  S
C2698      C2701   1.445       .  S
C2701      N2703   1.157       .  T
C2702      N2704   1.157       .  T
C2705      C2706   1.399       .  A
C2705      C2710   1.405       .  A
C2706      C2707   1.396       .  A
C2706      H2711   1.085       .  S
C2707      C2708   1.417       .  A
C2707      C2714   1.443       .  S
C2708      C2709   1.408       .  A
C2709      C2710   1.397       .  A
C2709      H2712   1.082       .  S
C2710      C2713   1.444       .  S
C2713      N2715   1.157       .  T
C2714      N2716   1.157       .  T
C2717      C2718   1.399       .  A
C2717      C2722   1.407       .  A
C2718      C2719   1.399       .  A
C2718      H2723   1.085       .  S
C2719      C2720   1.420       .  A
C2719      C2726   1.444       .  S
C2720      C2721   1.407       .  A
C2721      C2722   1.398       .  A
C2721      H2724   1.083       .  S
C2722      C2725   1.444       .  S
C2725      N2727   1.157       .  T
C2726      N2728   1.157       .  T
C2729      C2730   1.398       .  A
C2729      C2734   1.407       .  A
C2730      C2731   1.392       .  A
C2730      H2735   1.086       .  S
C2731      C2732   1.416       .  A
C2731      C2738   1.444       .  S
C2732      C2733   1.407       .  A
C2733      C2734   1.401       .  A
C2733      H2736   1.085       .  S
C2734      C2737   1.443       .  S
C2737      N2739   1.157       .  T
C2738      N2740   1.158       .  T
C2741      C2742   1.397       .  A
C2741      C2746   1.406       .  A
C2742      C2743   1.398       .  A
C2742      H2747   1.086       .  S
C2743      C2744   1.421       .  A
C2743      C2750   1.440       .  S
C2744      C2745   1.410       .  A
C2745      C2746   1.400       .  A
C2745      H2748   1.084       .  S
C2746      C2749   1.444       .  S
C2749      N2751   1.157       .  T
C2750      N2752   1.157       .  T
C2753      C2758   1.433       .  A
C2754      C2755   1.399       .  A
C2754      H2759   1.078       .  S
C2755      C2762   1.446       .  S
C2756      C2757   1.401       .  A
C2757      C2758   1.410       .  A
C2757      H2760   1.085       .  S
C2758      C2761   1.442       .  S
C2761      N2763   1.157       .  T
C2762      N2764   1.157       .  T
C2765      C2766   1.417       .  A
C2766      C2767   1.406       .  A
C2766      H2771   1.079       .  S
C2767      C2768   1.407       .  A
C2767      C2774   1.444       .  S
C2769      C2770   1.401       .  A
C2769      H2772   1.085       .  S
C2770      C2773   1.445       .  S
C2773      N2775   1.157       .  T
C2774      N2776   1.157   1_455  T
C2777      C2778   1.420       .  A
C2777      C2782   1.436       .  A
C2778      C2779   1.408       .  A
C2778      H2783   1.079       .  S
C2779      C2780   1.408       .  A
C2779      C2786   1.444       .  S
C2780      C2781   1.394       .  A
C2781      C2782   1.403       .  A
C2781      H2784   1.085       .  S
C2782      C2785   1.445       .  S
C2785      N2787   1.157       .  T
C2786      N2788   1.157       .  T
C2789      C2790   1.391       .  A
C2789      C2794   1.412       .  A
C2790      C2791   1.399       .  A
C2790      H2795   1.086       .  S
C2791      C2792   1.443       .  A
C2791      C2798   1.444       .  S
C2792      C2793   1.418       .  A
C2793      C2794   1.406       .  A
C2793      H2796   1.084       .  S
C2794      C2797   1.444       .  S
C2797      N2799   1.157       .  T
C2798      N2800   1.158       .  T
C2801      C2806   1.432       .  A
C2802      C2803   1.404       .  A
C2802      H2807   1.083       .  S
C2803      C2810   1.442       .  S
C2804      C2805   1.402       .  A
C2805      C2806   1.403       .  A
C2805      H2808   1.085       .  S
C2806      C2809   1.444       .  S
C2809      N2811   1.158       .  T
C2810      N2812   1.158       .  T
C2813      C2818   1.409       .  A
C2814      C2815   1.402       .  A
C2814      H2819   1.085       .  S
C2815      C2822   1.444       .  S
C2816      C2817   1.417       .  A
C2817      C2818   1.401       .  A
C2817      H2820   1.081       .  S
C2818      C2821   1.443       .  S
C2821      N2823   1.157       .  T
C2822      N2824   1.158       .  T
C2825      C2826   1.418       .  A
C2825      C2830   1.436       .  A
C2826      C2827   1.405       .  A
C2826      H2831   1.084       .  S
C2827      C2828   1.413       .  A
C2827      C2834   1.442       .  S
C2828      C2829   1.397       .  A
C2829      C2830   1.399       .  A
C2829      H2832   1.086       .  S
C2830      C2833   1.443       .  S
C2833      N2835   1.158       .  T
C2834      N2836   1.158       .  T
C2837      C2838   1.401       .  A
C2837      C2842   1.409       .  A
C2838      C2839   1.405       .  A
C2838      H2843   1.084       .  S
C2839      C2840   1.430       .  A
C2839      C2846   1.440       .  S
C2840      C2841   1.421       .  A
C2841      C2842   1.403       .  A
C2841      H2844   1.080       .  S
C2842      C2845   1.445       .  S
C2845      N2847   1.157       .  T
C2846      N2848   1.157       .  T
C2849      C2850   1.400       .  A
C2849      C2854   1.406       .  A
C2850      C2851   1.394       .  A
C2850      H2855   1.086       .  S
C2851      C2852   1.415       .  A
C2851      C2858   1.444       .  S
C2852      C2853   1.406       .  A
C2853      C2854   1.400       .  A
C2853      H2856   1.085       .  S
C2854      C2857   1.443       .  S
C2857      N2859   1.157       .  T
C2858      N2860   1.157       .  T
C2861      C2862   1.399       .  A
C2861      C2866   1.414       .  A
C2862      C2863   1.398       .  A
C2862      H2867   1.085       .  S
C2863      C2864   1.413       .  A
C2863      C2870   1.439       .  S
C2864      C2865   1.403       .  A
C2865      C2866   1.402       .  A
C2865      H2868   1.085       .  S
C2866      C2869   1.444       .  S
C2869      N2871   1.157       .  T
C2870      N2872   1.156       .  T
C2873      C2874   1.404       .  A
C2873      C2878   1.411       .  A
C2874      C2875   1.400       .  A
C2874      H2879   1.083       .  S
C2875      C2876   1.409       .  A
C2875      C2882   1.444       .  S
C2876      C2877   1.402       .  A
C2877      C2878   1.395       .  A
C2877      H2880   1.085       .  S
C2878      C2881   1.444       .  S
C2881      N2883   1.157       .  T
C2882      N2884   1.157       .  T
C2885      C2886   1.408       .  A
C2885      C2890   1.416       .  A
C2886      C2887   1.401       .  A
C2886      H2891   1.084       .  S
C2887      C2888   1.407       .  A
C2887      C2894   1.444       .  S
C2888      C2889   1.401       .  A
C2889      C2890   1.398       .  A
C2889      H2892   1.085       .  S
C2890      C2893   1.444       .  S
C2893      N2895   1.157       .  T
C2894      N2896   1.157       .  T
C2897      C2898   1.424       .  A
C2898      C2899   1.400       .  A
C2898      H2903   1.083       .  S
C2899      C2900   1.399       .  A
C2899      C2906   1.444       .  S
C2901      C2902   1.407       .  A
C2901      H2904   1.086       .  S
C2902      C2905   1.440       .  S
C2905      N2907   1.158       .  T
C2906      N2908   1.157       .  T
C2909      C2910   1.413       .  A
C2910      C2911   1.403       .  A
C2910      H2915   1.082       .  S
C2911      C2912   1.411       .  A
C2911      C2918   1.444       .  S
C2913      C2914   1.400       .  A
C2913      H2916   1.086       .  S
C2914      C2917   1.445       .  S
C2917      N2919   1.158       .  T
C2918      N2920   1.157       .  T
C2921      C2922   1.394       .  A
C2921      C2926   1.410       .  A
C2922      C2923   1.402       .  A
C2922      H2927   1.086       .  S
C2923      C2924   1.440       .  A
C2923      C2930   1.445       .  S
C2924      C2925   1.419       .  A
C2925      C2926   1.409       .  A
C2925      H2928   1.082       .  S
C2926      C2929   1.443       .  S
C2929      N2931   1.157       .  T
C2930      N2932   1.158       .  T
C2933      C2934   1.419       .  A
C2933      C2938   1.435       .  A
C2934      C2935   1.406       .  A
C2934      H2939   1.080       .  S
C2935      C2936   1.406       .  A
C2935      C2942   1.444       .  S
C2936      C2937   1.390       .  A
C2937      C2938   1.399       .  A
C2937      H2940   1.086       .  S
C2938      C2941   1.442       .  S
C2941      N2943   1.157       .  T
C2942      N2944   1.157       .  T
