geometry optimzed in LAMMPS
_audit_creation_date              2020-12-01 
_audit_creation_method            'lammps2cif' 
_symmetry_space_group_name_H-M    'P1' 
_symmetry_Int_Tables_number       1 
_symmetry_cell_setting            triclinic 
loop_ 
_symmetry_equiv_pos_as_xyz 
  x,y,z 
_cell_length_a                    36.50711853 
_cell_length_b                    34.244205280940356 
_cell_length_c                    31.8789805041782 
_cell_angle_alpha                 94.59907051283885 
_cell_angle_beta                  90.01900713510986 
_cell_angle_gamma                 120.41228249207596 
loop_ 
_atom_site_label 
_atom_site_type_symbol 
_atom_site_fract_x 
_atom_site_fract_y 
_atom_site_fract_z 
_atom_site_charge 
C1          C  0.26751892  0.12974817  0.98966786     0.03000
C2          C  0.28536351  0.17644972  0.98552687    -0.13200
C3          C  0.32939482  0.20469169  0.98254819     0.00500
C4          C  0.35568176  0.18576509  0.98363029    -0.11700
C5          C  0.33831459  0.13922089  0.98773748     0.03000
C6          C  0.29445586  0.11183340  0.99213643    -0.11100
H7          H  0.26489956  0.19067720  0.98358379     0.08600
H8          H  0.38956435  0.20703206  0.98007578     0.06100
H9          H  0.28103484  0.07592082  0.99539395     0.06000
C10         C  0.28131704  0.13392315  0.25305610     0.03000
C11         C  0.30714194  0.11542252  0.26033557    -0.13200
C12         C  0.34928834  0.13657632  0.24750490     0.00500
C13         C  0.36735986  0.18069681  0.23400885    -0.11700
C14         C  0.34310539  0.20188069  0.23121489     0.03000
C15         C  0.29981535  0.17733543  0.23891060    -0.11100
H16         H  0.29313724  0.08280557  0.27308307     0.08600
H17         H  0.39986850  0.19823248  0.22442730     0.06100
H18         H  0.28007439  0.19113764  0.23101185     0.06000
C19         C  0.19886487  0.34031025  0.31998372     0.03000
C20         C  0.17763910  0.36473635  0.31634293    -0.13200
C21         C  0.13292225  0.34201299  0.31327684     0.00500
C22         C  0.10989919  0.29423843  0.30947886    -0.11700
C23         C  0.12992916  0.26964367  0.31665831     0.03000
C24         C  0.17458476  0.29273888  0.32168445    -0.11100
H25         H  0.19585176  0.40157865  0.31976353     0.08600
H26         H  0.07547409  0.27622600  0.30630276     0.06100
H27         H  0.19020599  0.27410921  0.32873919     0.06000
C28         C  0.23469303  0.36656381  0.07314259     0.03000
C29         C  0.20847504  0.38543859  0.06882746    -0.13200
C30         C  0.16395061  0.35848596  0.07032111     0.00500
C31         C  0.14563923  0.31137702  0.07203419    -0.11700
C32         C  0.17120153  0.29207708  0.07632255     0.03000
C33         C  0.21548247  0.31975192  0.07722126    -0.11100
H34         H  0.22272338  0.42148797  0.06613642     0.08600
H35         H  0.11140911  0.28986839  0.07232036     0.06100
H36         H  0.23491793  0.30481679  0.08249586     0.06000
O37         O  0.07210671  0.48689146  0.37176830    -0.80300
O38         O  0.39667084  0.44262439  0.39602442    -0.80300
O39         O  0.44349051  0.39412340  0.41993651    -0.80300
O40         O  0.46163058  0.96434905  0.32771897    -0.80200
O41         O  0.42114926  0.42340363  0.46869853    -0.80400
O42         O  0.03025277  0.01973993  0.32912592    -0.80300
O43         O  0.40281647  0.48777201  0.34734341    -0.80300
O44         O  0.01379138  0.42162329  0.37855542    -0.80300
C45         C  0.05050197  0.44367238  0.36475933     1.09400
C46         C  0.37971725  0.45210532  0.36567746     1.09300
C47         C  0.41873414  0.38862576  0.44900673     1.09400
C48         C  0.49615059  0.48596704  0.30672176     1.09300
O49         O  0.03817366  0.08259574  0.40231871    -0.80300
O50         O  0.48714118  0.51516818  0.48932905    -0.80300
O51         O  0.06581595  0.97996949  0.45211303    -0.80300
O52         O  0.44395669  0.03821081  0.42305942    -0.80300
O53         O  0.40646111  0.99325060  0.47149782    -0.80300
O54         O  0.07567470  0.04823036  0.44809404    -0.80300
O55         O  0.98880393  0.05775635  0.35299646    -0.80200
O56         O  0.99842003  0.45770305  0.49646091    -0.80300
Co57       Co  0.05091975  0.03356319  0.39039551     1.51500
Co58       Co  0.44603036  0.48236244  0.44157094     1.51700
Co59       Co  0.00459922  0.43973584  0.43538756     1.51600
Co60       Co  0.45314076  0.99725237  0.37669610     1.51500
O61         O  0.49484761  0.48797436  0.40850562    -1.42200
C62         C  0.02211914  0.09058773  0.37172911     1.09300
C63         C  0.49565000  0.49441283  0.01124668     1.09400
C64         C  0.08827530  0.02277842  0.46023026     1.09400
C65         C  0.41850877  0.02932952  0.45379659     1.09300
O66         O  0.09443072  0.49920918  0.10062501    -0.80300
O67         O  0.43236032  0.44676348  0.12199458    -0.80300
O68         O  0.45845594  0.40230691  0.16587015    -0.80300
O69         O  0.50693546  0.04112179  0.07387605    -0.80200
O70         O  0.41051212  0.41353669  0.19886124    -0.80400
O71         O  0.01165826  0.98188729  0.08143062    -0.80300
O72         O  0.43557247  0.51132858  0.11655927    -0.80300
O73         O  0.03892295  0.43846744  0.12326495    -0.80300
C74         C  0.07503007  0.45688252  0.10516710     1.09400
C75         C  0.41619898  0.46858620  0.10859058     1.09300
C76         C  0.42363222  0.38680769  0.18589529     1.09400
C77         C  0.50558942  0.50647550  0.05675460     1.09300
O78         O  0.07946919  0.07430116  0.10347777    -0.80300
O79         O  0.47356476  0.49095190  0.23995994    -0.80300
O80         O  0.08042368  0.99235446  0.20414147    -0.80300
O81         O  0.48074832  0.07158402  0.18938352    -0.80300
O82         O  0.42471856  0.00376960  0.19306705    -0.80300
O83         O  0.09790672  0.05280852  0.17361520    -0.80300
O84         O  0.05410877  0.10442934  0.14923991    -0.80200
O85         O  0.01075604  0.45661038  0.24291486    -0.80300
Co86       Co  0.05359961  0.01483327  0.12939082     1.51500
Co87       Co  0.45593804  0.46807177  0.18095611     1.51700
Co88       Co  0.02106754  0.45377752  0.18111715     1.51600
Co89       Co  0.49599657  0.05467380  0.13404782     1.51500
O90         O  0.51167662  0.51170604  0.16343818    -1.42200
C91         C  0.08043623  0.10911414  0.12169451     1.09300
C92         C  0.49341039  0.47792233  0.26088073     1.09400
C93         C  0.10653095  0.03318724  0.19982376     1.09400
C94         C  0.44343995  0.04678989  0.20143550     1.09300
C95         C  0.15157886  0.24402154  0.08515706    -0.05600
C96         C  0.16239796  0.23357796  0.12332082    -0.33000
C97         C  0.14045039  0.18906983  0.13499251     0.36200
C98         C  0.10814248  0.15432521  0.10784491    -0.06000
C99         C  0.09822892  0.16437559  0.06915529    -0.32900
C100        C  0.11986168  0.20889794  0.05759105     0.36100
H101        H  0.18657800  0.26035876  0.14495004     0.16500
O102        O  0.15028383  0.17990207  0.17315206    -0.60400
H103        H  0.07263159  0.13786746  0.04850944     0.16500
O104        O  0.10894983  0.21805581  0.01996680    -0.60500
H105        H  0.12507994  0.21104726  0.99866146     0.43500
H106        H  0.13237618  0.18525810  0.19350614     0.43500
C107        C  0.28200706  0.39565468  0.07732409    -0.05600
C108        C  0.30773922  0.37923356  0.05983879    -0.33000
C109        C  0.35185023  0.40293952  0.06862123     0.36200
C110        C  0.37125987  0.44485121  0.09324819    -0.06000
C111        C  0.34604834  0.46250910  0.10854573    -0.32900
C112        C  0.30191483  0.43802383  0.10181295     0.36100
H113        H  0.29347936  0.34711287  0.04046614     0.16500
O114        O  0.37564024  0.38490084  0.05312949    -0.60400
H115        H  0.36034324  0.49440578  0.12822921     0.16500
O116        O  0.27847323  0.45377801  0.12287339    -0.60500
H117        H  0.28448935  0.48163139  0.10975706     0.43500
H118        H  0.37281336  0.36297286  0.07323356     0.43500
C119        C  0.09349424  0.42843488  0.09072526    -0.05600
C120        C  0.08415133  0.39069816  0.11254487    -0.33000
C121        C  0.10614201  0.36733139  0.10565055     0.36200
C122        C  0.13731247  0.38023294  0.07506548    -0.06000
C123        C  0.14516484  0.41666183  0.05166098    -0.32900
C124        C  0.12373603  0.44077199  0.05941346     0.36100
H125        H  0.06153918  0.38092415  0.13720923     0.16500
O126        O  0.09863152  0.33376064  0.13104414    -0.60400
H127        H  0.16860189  0.42708182  0.02778828     0.16500
O128        O  0.13315636  0.47674725  0.03666832    -0.60500
H129        H  0.11249534  0.46347931  0.01211169     0.43500
H130        H  0.11997889  0.34915351  0.15489644     0.43500
C131        C  0.04590154  0.13616090  0.35590580    -0.05600
C132        C  0.06563705  0.17460646  0.38524499    -0.33000
C133        C  0.09387203  0.21764706  0.37250584     0.36200
C134        C  0.10314523  0.22311042  0.32978508    -0.06000
C135        C  0.08319534  0.18492600  0.30009681    -0.32900
C136        C  0.05502666  0.14152237  0.31292286     0.36100
H137        H  0.05961510  0.17111822  0.41841932     0.16500
O138        O  0.11171539  0.25457489  0.40200027    -0.60400
H139        H  0.08983235  0.18872892  0.26707692     0.16500
O140        O  0.03955543  0.10436708  0.28377993    -0.60500
H141        H  0.00870050  0.09274827  0.28022008     0.43500
H142        H  0.13725096  0.25550389  0.41396194     0.43500
C143        C  0.33387620  0.42087957  0.35247328    -0.05600
C144        C  0.31785795  0.42267843  0.31293004    -0.33000
C145        C  0.27428649  0.39538340  0.30125686     0.36200
C146        C  0.24571662  0.36568120  0.32922435    -0.06000
C147        C  0.26172691  0.36304516  0.36819764    -0.32900
C148        C  0.30518202  0.39024075  0.38001577     0.36100
H149        H  0.33908245  0.44565220  0.29111189     0.16500
O150        O  0.25982864  0.39849755  0.26266800    -0.60400
H151        H  0.24011051  0.34108448  0.39041096     0.16500
O152        O  0.31865465  0.38916341  0.41991130    -0.60500
H153        H  0.31309627  0.35790207  0.42134462     0.43500
H154        H  0.25886470  0.37342608  0.24390482     0.43500
C155        C  0.11001466  0.36726046  0.32281552    -0.05600
C156        C  0.12247806  0.40900531  0.30631289    -0.33000
C157        C  0.10281469  0.43423669  0.31843656     0.36200
C158        C  0.06992071  0.41749130  0.34699784    -0.06000
C159        C  0.05697556  0.37544933  0.36244062    -0.32900
C160        C  0.07716043  0.35114894  0.35166102     0.36100
H161        H  0.14780757  0.42232530  0.28445062     0.16500
O162        O  0.11628294  0.47521019  0.30260754    -0.60400
H163        H  0.03249174  0.36228594  0.38523701     0.16500
O164        O  0.06590839  0.31286571  0.37167736    -0.60500
H165        H  0.08620777  0.32335872  0.39640973     0.43500
H166        H  0.09456594  0.46898236  0.28037062     0.43500
C167        C  0.42014701  0.06813703  0.22106722    -0.05600
C168        C  0.37558701  0.04307810  0.21956881    -0.33000
C169        C  0.35191966  0.06408995  0.22953744     0.36200
C170        C  0.37278618  0.11112526  0.24344591    -0.06000
C171        C  0.41739987  0.13501042  0.24884807    -0.32900
C172        C  0.44103555  0.11444457  0.23668220     0.36100
H173        H  0.35868488  0.00750256  0.20764636     0.16500
O174        O  0.30877701  0.03910331  0.22127628    -0.60400
H175        H  0.43442363  0.17057474  0.26071261     0.16500
O176        O  0.48455879  0.14042413  0.23926277    -0.60500
H177        H  0.49233580  0.15757001  0.21392932     0.43500
H178        H  0.29749284  0.01724116  0.24308659     0.43500
C179        C  0.36177750  0.24854450  0.21771919    -0.05600
C180        C  0.38770271  0.26118400  0.18298547    -0.33000
C181        C  0.40652940  0.30550663  0.17079298     0.36200
C182        C  0.39922566  0.33803496  0.19324742    -0.06000
C183        C  0.37199688  0.32480081  0.22691617    -0.32900
C184        C  0.35348348  0.28068781  0.23929530     0.36100
H185        H  0.39354987  0.23667854  0.16527820     0.16500
O186        O  0.43166132  0.31646646  0.13667512    -0.60400
H187        H  0.36651515  0.34932598  0.24512828     0.16500
O188        O  0.32964918  0.27023251  0.27436522    -0.60500
H189        H  0.30274131  0.26859447  0.26578832     0.43500
H190        H  0.45954673  0.32186549  0.14734114     0.43500
C191        C  0.14855145  0.05551993  0.22132251    -0.05600
C192        C  0.16462410  0.09749364  0.24521194    -0.33000
C193        C  0.20724407  0.12174669  0.26033771     0.36200
C194        C  0.23431695  0.10441394  0.25013350    -0.06000
C195        C  0.21678430  0.06063875  0.22902239    -0.32900
C196        C  0.17431668  0.03626015  0.21476042     0.36100
H197        H  0.14445789  0.11189447  0.25125836     0.16500
O198        O  0.22235195  0.16226658  0.28477748    -0.60400
H199        H  0.23669933  0.04655756  0.22033025     0.16500
O200        O  0.15912544  0.99506381  0.19155595    -0.60500
H201        H  0.16524965  0.00233908  0.16194078     0.43500
H202        H  0.21890509  0.18281278  0.26702245     0.43500
C203        C  0.36579290  0.11482730  0.48464788    -0.05600
C204        C  0.36180984  0.08712574  0.01134515    -0.33000
C205        C  0.37635869  0.05287202  0.50142407     0.36200
C206        C  0.40356218  0.06105503  0.46763595    -0.06000
C207        C  0.41367964  0.09816013  0.44439333    -0.32900
C208        C  0.39475616  0.12459052  0.45229913     0.36100
H209        H  0.34336109  0.08246063  0.03906952     0.16500
O210        O  0.37658767  0.03068593  0.03165710    -0.60400
H211        H  0.43463548  0.10539217  0.41841111     0.16500
O212        O  0.40286829  0.15797102  0.42645332    -0.60500
H213        H  0.38093535  0.14279699  0.40304418     0.43500
H214        H  0.40063809  0.04809059  0.05272977     0.43500
C215        C  0.39152511  0.34263915  0.46194339    -0.05600
C216        C  0.35864503  0.30951335  0.43433653    -0.33000
C217        C  0.33675806  0.26382104  0.44284659     0.36200
C218        C  0.34877973  0.25059815  0.47870815    -0.06000
C219        C  0.38370952  0.28606334  0.00205463    -0.32900
C220        C  0.40302848  0.32957590  0.49814654     0.36100
H221        H  0.35099765  0.31882064  0.40529927     0.16500
O222        O  0.30609621  0.23187715  0.41421753    -0.60400
H223        H  0.39581623  0.27553917  0.02718611     0.16500
O224        O  0.44066914  0.36239731  0.01874848    -0.60500
H225        H  0.46456430  0.36218406  0.00413598     0.43500
H226        H  0.28037101  0.23405138  0.41951533     0.43500
C227        C  0.22169191  0.09585673  0.48706438    -0.05600
C228        C  0.19490482  0.11316193  0.00890764    -0.33000
C229        C  0.15149001  0.08185493  0.50475093     0.36200
C230        C  0.13273500  0.04364514  0.47508258    -0.06000
C231        C  0.15838455  0.03027531  0.45315161    -0.32900
C232        C  0.20254833  0.05651359  0.45823373     0.36100
H233        H  0.20923822  0.14431153  0.02974567     0.16500
O234        O  0.12671387  0.10476226  0.02069041    -0.60400
H235        H  0.14429905  0.00146870  0.42942987     0.16500
O236        O  0.22658465  0.04514008  0.43265231    -0.60500
H237        H  0.23104048  0.06207817  0.40751331     0.43500
H238        H  0.12886035  0.12814056  0.00274490     0.43500
C239        C  0.26838590  0.12663266  0.48979339     0.03000
C240        C  0.28609796  0.17346999  0.48695853    -0.13200
C241        C  0.33023155  0.20195755  0.48525241     0.00500
C242        C  0.35675019  0.18334808  0.48675222    -0.11700
C243        C  0.33934906  0.13644369  0.48892256     0.03000
C244        C  0.29525312  0.10868864  0.49155444    -0.11100
H245        H  0.26552141  0.18756111  0.48475173     0.08600
H246        H  0.39078316  0.20523345  0.48487769     0.06100
H247        H  0.28148516  0.07245214  0.49314201     0.06000
C248        C  0.28342174  0.13726212  0.75468779     0.03000
C249        C  0.31043612  0.11975449  0.76004495    -0.13200
C250        C  0.35169232  0.14128428  0.74478599     0.00500
C251        C  0.36809145  0.18511797  0.73113750    -0.11700
C252        C  0.34314488  0.20565544  0.73063525     0.03000
C253        C  0.30048436  0.18065700  0.74054117    -0.11100
H254        H  0.29800010  0.08767766  0.77349781     0.08600
H255        H  0.39982437  0.20307805  0.71965766     0.06100
H256        H  0.28013015  0.19415013  0.73424388     0.06000
C257        C  0.19816425  0.34570641  0.81992617     0.03000
C258        C  0.17726974  0.37033631  0.81590919    -0.13200
C259        C  0.13259748  0.34793948  0.81156843     0.00500
C260        C  0.10955544  0.30000796  0.80663592    -0.11700
C261        C  0.12907895  0.27512503  0.81507807     0.03000
C262        C  0.17365190  0.29814318  0.82144341    -0.11100
H263        H  0.19584652  0.40712992  0.81987838     0.08600
H264        H  0.07535223  0.28183967  0.80120270     0.06100
H265        H  0.18899116  0.27941677  0.82915519     0.06000
C266        C  0.23704179  0.37211543  0.57285523     0.03000
C267        C  0.21005055  0.39013574  0.56939682    -0.13200
C268        C  0.16555421  0.36212934  0.57071010     0.00500
C269        C  0.14822186  0.31506523  0.57217423    -0.11700
C270        C  0.17468855  0.29680776  0.57629686     0.03000
C271        C  0.21882158  0.32536778  0.57668543    -0.11100
H272        H  0.22373072  0.42627128  0.56751157     0.08600
H273        H  0.11409668  0.29277177  0.57244864     0.06100
H274        H  0.23900411  0.31121962  0.58152483     0.06000
O275        O  0.07248054  0.49438125  0.87121347    -0.80300
O276        O  0.39559343  0.44739253  0.89613228    -0.80300
O277        O  0.44202332  0.39794068  0.91954934    -0.80300
O278        O  0.46139394  0.96805157  0.82713604    -0.80200
O279        O  0.41935671  0.42687518  0.96836309    -0.80400
O280        O  0.02974177  0.02534426  0.82831701    -0.80300
O281        O  0.40249860  0.49213196  0.84668891    -0.80300
O282        O  0.01380051  0.42888864  0.87558241    -0.80300
C283        C  0.05102121  0.45129631  0.86287685     1.09400
C284        C  0.37899430  0.45701124  0.86555284     1.09300
C285        C  0.41706586  0.39224810  0.94848633     1.09400
C286        C  0.49653228  0.49020957  0.80715135     1.09300
O287        O  0.03676330  0.08762153  0.90139578    -0.80300
O288        O  0.48571040  0.51794462  0.99033900    -0.80300
O289        O  0.06440549  0.98451367  0.95037336    -0.80300
O290        O  0.44388145  0.04188533  0.92253842    -0.80300
O291        O  0.40630287  0.99730273  0.97141706    -0.80300
O292        O  0.07422965  0.05294835  0.94736378    -0.80300
O293        O  0.98778349  0.06250394  0.85163863    -0.80200
O294        O  0.99713647  0.46010157  0.99470483    -0.80300
Co295      Co  0.04988505  0.03881021  0.88959369     1.51500
Co296      Co  0.44491234  0.48631289  0.94203463     1.51700
Co297      Co  0.00372294  0.44441674  0.93314661     1.51600
Co298      Co  0.45291954  0.00108236  0.87592879     1.51500
O299        O  0.49377390  0.49198970  0.90902275    -1.42200
C300        C  0.02090380  0.09554884  0.87055124     1.09300
C301        C  0.49735159  0.49229189  0.51080807     1.09400
C302        C  0.08685724  0.02735553  0.95911855     1.09400
C303        C  0.41862430  0.03332595  0.95345605     1.09300
O304        O  0.09524372  0.50109590  0.60261354    -0.80300
O305        O  0.43393923  0.45024141  0.62180922    -0.80300
O306        O  0.45936263  0.40507756  0.66709469    -0.80300
O307        O  0.51056796  0.04268251  0.57323187    -0.80200
O308        O  0.41188413  0.41812968  0.69904296    -0.80400
O309        O  0.01840127  0.98601888  0.58301312    -0.80300
O310        O  0.43871678  0.51548836  0.61596412    -0.80300
O311        O  0.04021161  0.44097234  0.62679873    -0.80300
C312        C  0.07574596  0.45892342  0.60761710     1.09400
C313        C  0.41839540  0.47271842  0.60843638     1.09300
C314        C  0.42416504  0.39056846  0.68641581     1.09400
C315        C  0.50752284  0.50563264  0.55625009     1.09300
O316        O  0.08677378  0.07876139  0.60580877    -0.80300
O317        O  0.47579188  0.49518865  0.73954676    -0.80300
O318        O  0.08186959  0.99405561  0.70696226    -0.80300
O319        O  0.48419357  0.07491345  0.68778515    -0.80300
O320        O  0.42739270  0.00779787  0.69136713    -0.80300
O321        O  0.10168031  0.05586503  0.67782897    -0.80300
O322        O  0.06020480  0.10941764  0.64917513    -0.80200
O323        O  0.01159462  0.46368844  0.74500815    -0.80300
Co324      Co  0.05901434  0.01905791  0.63200547     1.51500
Co325      Co  0.45816599  0.47167854  0.68066088     1.51700
Co326      Co  0.02213812  0.45885299  0.68355533     1.51600
Co327      Co  0.49947443  0.05713017  0.63309908     1.51500
O328        O  0.51413574  0.51410473  0.66295382    -1.42200
C329        C  0.08744317  0.11389851  0.62290351     1.09300
C330        C  0.49466309  0.48175488  0.76130064     1.09400
C331        C  0.10884109  0.03497369  0.70393369     1.09400
C332        C  0.44646518  0.05097701  0.69896087     1.09300
C333        C  0.15631001  0.24899714  0.58567307    -0.05600
C334        C  0.16626201  0.23967950  0.62485611    -0.33000
C335        C  0.14537665  0.19519157  0.63678849     0.36200
C336        C  0.11527202  0.15920367  0.60876876    -0.06000
C337        C  0.10622833  0.16836507  0.56917678    -0.32900
C338        C  0.12662124  0.21287188  0.55744987     0.36100
H339        H  0.18878073  0.26727344  0.64703580     0.16500
O340        O  0.15381499  0.18728764  0.67616605    -0.60400
H341        H  0.08172471  0.14117677  0.54810545     0.16500
O342        O  0.11622686  0.22094144  0.51902111    -0.60500
H343        H  0.13770731  0.22108365  0.49990054     0.43500
H344        H  0.13623041  0.19462278  0.69525309     0.43500
C345        C  0.28425761  0.40186412  0.57664653    -0.05600
C346        C  0.31008707  0.38675370  0.55704598    -0.33000
C347        C  0.35410466  0.40987581  0.56612988     0.36200
C348        C  0.37337601  0.44995583  0.59336364    -0.06000
C349        C  0.34814431  0.46684662  0.61049803    -0.32900
C350        C  0.30398599  0.44282587  0.60325139     0.36100
H351        H  0.29585936  0.35577654  0.53598202     0.16500
O352        O  0.37791915  0.39285365  0.54857704    -0.60400
H353        H  0.36247881  0.49770199  0.63161314     0.16500
O354        O  0.28028648  0.45735418  0.62562803    -0.60500
H355        H  0.28608718  0.48578259  0.61382727     0.43500
H356        H  0.37566403  0.37024937  0.56758429     0.43500
C357        C  0.09363162  0.43020648  0.59225918    -0.05600
C358        C  0.08437584  0.39211022  0.61342201    -0.33000
C359        C  0.10657610  0.36902462  0.60591110     0.36200
C360        C  0.13799887  0.38279222  0.57551800    -0.06000
C361        C  0.14539730  0.41929518  0.55247941    -0.32900
C362        C  0.12367184  0.44295529  0.56074378     0.36100
H363        H  0.06177320  0.38188473  0.63809900     0.16500
O364        O  0.09907678  0.33493946  0.63060524    -0.60400
H365        H  0.16882084  0.43022625  0.52858565     0.16500
O366        O  0.13259988  0.47893134  0.53825036    -0.60500
H367        H  0.11057342  0.46584845  0.51492390     0.43500
H368        H  0.12003369  0.35004119  0.65483236     0.43500
C369        C  0.04472930  0.14133021  0.85471258    -0.05600
C370        C  0.06640506  0.17959587  0.88405406    -0.33000
C371        C  0.09454813  0.22260409  0.87109356     0.36200
C372        C  0.10173463  0.22842471  0.82806166    -0.06000
C373        C  0.07970227  0.19048182  0.79833429    -0.32900
C374        C  0.05173405  0.14702760  0.81138832     0.36100
H375        H  0.06202178  0.17598803  0.91743697     0.16500
O376        O  0.11436232  0.25920249  0.90079957    -0.60400
H377        H  0.08472550  0.19445176  0.76507874     0.16500
O378        O  0.03437790  0.11008522  0.78189574    -0.60500
H379        H  0.00348054  0.09877659  0.78049684     0.43500
H380        H  0.14039177  0.25964103  0.91044208     0.43500
C381        C  0.33300908  0.42645735  0.85273150    -0.05600
C382        C  0.31723843  0.42704105  0.81262390    -0.33000
C383        C  0.27366515  0.39978792  0.80100835     0.36200
C384        C  0.24492644  0.37106687  0.82946949    -0.06000
C385        C  0.26059657  0.37010718  0.86926154    -0.32900
C386        C  0.30400264  0.39763976  0.88118333     0.36100
H387        H  0.33865880  0.44901697  0.79031255     0.16500
O388        O  0.25933595  0.40215940  0.76205231    -0.60400
H389        H  0.23873730  0.34935827  0.89197287     0.16500
O390        O  0.31714424  0.39903270  0.92194090    -0.60500
H391        H  0.31070717  0.36783452  0.92584266     0.43500
H392        H  0.25780498  0.37636522  0.74399176     0.43500
C393        C  0.10983404  0.37377578  0.82016869    -0.05600
C394        C  0.12675052  0.41863692  0.80888505    -0.33000
C395        C  0.10801524  0.44469493  0.82165109     0.36200
C396        C  0.07072615  0.42539051  0.84456099    -0.06000
C397        C  0.05332926  0.38038416  0.85445520    -0.32900
C398        C  0.07304040  0.35548224  0.84411736     0.36100
H399        H  0.15514705  0.43404961  0.79101574     0.16500
O400        O  0.12708272  0.48911762  0.81260468    -0.60400
H401        H  0.02553073  0.36497249  0.87320290     0.16500
O402        O  0.05736568  0.31443849  0.86057190    -0.60500
H403        H  0.07490888  0.32107907  0.88682832     0.43500
H404        H  0.11294077  0.48827223  0.78571138     0.43500
C405        C  0.42340083  0.07354911  0.71665320    -0.05600
C406        C  0.37901773  0.04805263  0.71815927    -0.33000
C407        C  0.35524126  0.06907600  0.72766433     0.36200
C408        C  0.37594254  0.11666332  0.73900270    -0.06000
C409        C  0.42069110  0.14153863  0.74045242    -0.32900
C410        C  0.44414470  0.12098705  0.72762744     0.36100
H411        H  0.36210676  0.01177680  0.70910158     0.16500
O412        O  0.31188083  0.04322101  0.72148918    -0.60400
H413        H  0.43792118  0.17771582  0.74980989     0.16500
O414        O  0.48728612  0.14807747  0.72500080    -0.60500
H415        H  0.49126183  0.16088013  0.69741083     0.43500
H416        H  0.30207094  0.02215939  0.74400842     0.43500
C417        C  0.36056759  0.25208397  0.71700682    -0.05600
C418        C  0.38381589  0.26401810  0.68045957    -0.33000
C419        C  0.40287126  0.30846423  0.66866370     0.36200
C420        C  0.39842732  0.34181919  0.69332365    -0.06000
C421        C  0.37333876  0.32926037  0.72862857    -0.32900
C422        C  0.35461857  0.28493519  0.74064076     0.36100
H423        H  0.38769887  0.23892259  0.66121351     0.16500
O424        O  0.42558820  0.31885285  0.63287056    -0.60400
H425        H  0.37007543  0.35448470  0.74840821     0.16500
O426        O  0.33327526  0.27499291  0.77729232    -0.60500
H427        H  0.30581859  0.27309450  0.77075843     0.43500
H428        H  0.45341375  0.32236467  0.64097544     0.43500
C429        C  0.15009491  0.05638431  0.72702919    -0.05600
C430        C  0.16634074  0.09904659  0.74956413    -0.33000
C431        C  0.20911922  0.12402133  0.76402304     0.36200
C432        C  0.23639252  0.10685018  0.75418555    -0.06000
C433        C  0.21846908  0.06188549  0.73557159    -0.32900
C434        C  0.17563329  0.03661344  0.72230721     0.36100
H435        H  0.14624073  0.11367092  0.75463811     0.16500
O436        O  0.22423501  0.16526321  0.78720075    -0.60400
H437        H  0.23821423  0.04740682  0.72767657     0.16500
O438        O  0.15997994  0.99412296  0.70152537    -0.60500
H439        H  0.16638738  0.99931287  0.67156890     0.43500
H440        H  0.21884217  0.18442735  0.76931717     0.43500
C441        C  0.36464843  0.11764141  0.98280633    -0.05600
C442        C  0.35799599  0.07973124  0.50974144    -0.33000
C443        C  0.38126008  0.06113222  0.00367183     0.36200
C444        C  0.40376838  0.06520443  0.96671562    -0.06000
C445        C  0.40860320  0.09767314  0.93955045    -0.32900
C446        C  0.38890252  0.12329598  0.94702691     0.36100
H447        H  0.33622248  0.07194398  0.53505448     0.16500
O448        O  0.36582425  0.01748925  0.52542596    -0.60400
H449        H  0.42564407  0.10145665  0.91092490     0.16500
O450        O  0.39128552  0.15156916  0.91764527    -0.60500
H451        H  0.36721793  0.13221373  0.89703648     0.43500
H452        H  0.38863698  0.02993416  0.54795534     0.43500
C453        C  0.39027910  0.34625472  0.96150469    -0.05600
C454        C  0.35446102  0.31420666  0.93637670    -0.33000
C455        C  0.33293843  0.26821599  0.94409197     0.36200
C456        C  0.34817720  0.25364473  0.97658566    -0.06000
C457        C  0.38152453  0.28387194  0.50646136    -0.32900
C458        C  0.40483158  0.33195981  0.99456120     0.36100
H459        H  0.34421156  0.32450365  0.90962949     0.16500
O460        O  0.29927051  0.23734798  0.91760037    -0.60400
H461        H  0.39136359  0.27412496  0.53391761     0.16500
O462        O  0.43669938  0.36088225  0.52441412    -0.60500
H463        H  0.46193729  0.36076318  0.51305271     0.43500
H464        H  0.27516922  0.24154307  0.92580041     0.43500
C465        C  0.22060022  0.09926305  0.98743820    -0.05600
C466        C  0.19572027  0.10734382  0.51113524    -0.33000
C467        C  0.15069535  0.08853397  0.00187825     0.36200
C468        C  0.13134712  0.04829839  0.97462380    -0.06000
C469        C  0.15665152  0.03272691  0.95531871    -0.32900
C470        C  0.20090469  0.05826767  0.96071667     0.36100
H471        H  0.20980694  0.13714673  0.53369928     0.16500
O472        O  0.12687060  0.09528270  0.52658420    -0.60400
H473        H  0.14231350  0.00254596  0.93317116     0.16500
O474        O  0.22449540  0.04449568  0.93716956    -0.60500
H475        H  0.23088563  0.06105458  0.91155141     0.43500
H476        H  0.12563329  0.11754467  0.50943403     0.43500
C477        C  0.26819718  0.63080635  0.99658436     0.03000
C478        C  0.28591181  0.67776134  0.99451027    -0.13200
C479        C  0.33005468  0.70631881  0.99259805     0.00500
C480        C  0.35658101  0.68766881  0.99367646    -0.11700
C481        C  0.33918559  0.64070586  0.99539578     0.03000
C482        C  0.29512438  0.61289280  0.99825397    -0.11100
H483        H  0.26526147  0.69174514  0.99218378     0.08600
H484        H  0.39053792  0.70938898  0.99099670     0.06100
H485        H  0.28135619  0.57652687  0.99893467     0.06000
C486        C  0.28281641  0.63418401  0.25233765     0.03000
C487        C  0.30863679  0.61564004  0.25960594    -0.13200
C488        C  0.35105402  0.63724891  0.24762995     0.00500
C489        C  0.36964281  0.68199136  0.23582416    -0.11700
C490        C  0.34545345  0.70323593  0.23315654     0.03000
C491        C  0.30181160  0.67825555  0.23943092    -0.11100
H492        H  0.29458576  0.58257530  0.27148749     0.08600
H493        H  0.40246914  0.69986775  0.22720021     0.06100
H494        H  0.28242264  0.69239224  0.23134709     0.06000
C495        C  0.19862103  0.84187946  0.32748252     0.03000
C496        C  0.17780592  0.86668298  0.32415331    -0.13200
C497        C  0.13323638  0.84438343  0.32117790     0.00500
C498        C  0.10981534  0.79662783  0.31774886    -0.11700
C499        C  0.12964666  0.77162006  0.32398637     0.03000
C500        C  0.17423456  0.79430312  0.32875577    -0.11100
H501        H  0.19627472  0.90352410  0.32746717     0.08600
H502        H  0.07538948  0.77891494  0.31480307     0.06100
H503        H  0.18973513  0.77533517  0.33498260     0.06000
C504        C  0.23292176  0.86873906  0.07541670     0.03000
C505        C  0.20643601  0.88723393  0.07098630    -0.13200
C506        C  0.16197973  0.85995063  0.07279052     0.00500
C507        C  0.14399828  0.81297749  0.07535025    -0.11700
C508        C  0.16987668  0.79405368  0.07979517     0.03000
C509        C  0.21409757  0.82208457  0.08012340    -0.11100
H510        H  0.22041555  0.92321433  0.06798725     0.08600
H511        H  0.10981276  0.79138481  0.07612398     0.06100
H512        H  0.23388060  0.80752357  0.08522465     0.06000
O513        O  0.07138692  0.98934505  0.37443914    -0.80300
O514        O  0.39700780  0.94252686  0.39840242    -0.80300
O515        O  0.44305998  0.89393554  0.42190811    -0.80300
O516        O  0.46273256  0.46422568  0.32679390    -0.80200
O517        O  0.42200711  0.92386064  0.47127632    -0.80400
O518        O  0.03125105  0.51757842  0.32637263    -0.80300
O519        O  0.40216994  0.98793478  0.35023495    -0.80300
O520        O  0.01277708  0.92396722  0.37992679    -0.80300
C521        C  0.04996819  0.94619773  0.36716848     1.09400
C522        C  0.37953582  0.95234071  0.36886853     1.09300
C523        C  0.41924314  0.88883938  0.45177401     1.09400
C524        C  0.49475465  0.98639627  0.30733477     1.09300
O525        O  0.03916541  0.58043678  0.39959466    -0.80300
O526        O  0.48810169  0.01560696  0.49041815    -0.80300
O527        O  0.06769256  0.47928500  0.44994834    -0.80300
O528        O  0.44380836  0.53839024  0.42106248    -0.80300
O529        O  0.40598632  0.49317729  0.46935093    -0.80300
O530        O  0.07685214  0.54703388  0.44516769    -0.80300
O531        O  0.98989353  0.55583447  0.35008419    -0.80200
O532        O  0.99707866  0.95821749  0.49850307    -0.80300
Co533      Co  0.05191655  0.53153390  0.38760482     1.51500
Co534      Co  0.44642647  0.98238482  0.44337790     1.51700
Co535      Co  0.00308042  0.94087757  0.43710080     1.51600
Co536      Co  0.45361466  0.49740186  0.37498030     1.51500
O537        O  0.49455838  0.98760473  0.40949314    -1.42200
C538        C  0.02285830  0.58862080  0.36941378     1.09300
C539        C  0.49663108  0.99344234  0.01143064     1.09400
C540        C  0.08993899  0.52221067  0.45762962     1.09400
C541        C  0.41873170  0.52970703  0.45219733     1.09300
O542        O  0.09147442  0.99958612  0.10154386    -0.80300
O543        O  0.43052455  0.94710451  0.12250744    -0.80300
O544        O  0.45758530  0.90364385  0.16540386    -0.80300
O545        O  0.50724349  0.54205731  0.07405304    -0.80200
O546        O  0.40992939  0.91400185  0.19977352    -0.80400
O547        O  0.01526238  0.48284710  0.07961618    -0.80300
O548        O  0.43480741  0.01206497  0.11629972    -0.80300
O549        O  0.03700666  0.93937482  0.12611271    -0.80300
C550        C  0.07260021  0.95755392  0.10715710     1.09400
C551        C  0.41471030  0.96926794  0.10903249     1.09300
C552        C  0.42367337  0.88778269  0.18681301     1.09400
C553        C  0.50601231  0.00569584  0.05701630     1.09300
O554        O  0.08337052  0.57503490  0.10358458    -0.80300
O555        O  0.47313408  0.99240460  0.24025514    -0.80300
O556        O  0.08161789  0.48971123  0.20205955    -0.80300
O557        O  0.48161250  0.57062079  0.19020972    -0.80300
O558        O  0.42538454  0.50291407  0.19278090    -0.80300
O559        O  0.09976095  0.55126157  0.17323570    -0.80300
O560        O  0.05758808  0.60429257  0.14960769    -0.80200
O561        O  0.01032027  0.95930566  0.24585170    -0.80300
Co562      Co  0.05643004  0.51461421  0.12815601     1.51500
Co563      Co  0.45492226  0.96875578  0.18131251     1.51700
Co564      Co  0.01989692  0.95546022  0.18398014     1.51600
Co565      Co  0.49661461  0.55442242  0.13456520     1.51500
O566        O  0.51064142  0.01203118  0.16353898    -1.42200
C567        C  0.08417628  0.60961069  0.12226042     1.09300
C568        C  0.49189279  0.97830347  0.26140341     1.09400
C569        C  0.10788787  0.53081512  0.19890366     1.09400
C570        C  0.44407455  0.54588587  0.20154647     1.09300
C571        C  0.15085600  0.74581295  0.08819567    -0.05600
C572        C  0.16417152  0.73486809  0.12463325    -0.33000
C573        C  0.14399051  0.68992340  0.13526028     0.36200
C574        C  0.11103522  0.65518040  0.10862608    -0.06000
C575        C  0.09857022  0.66581138  0.07165792    -0.32900
C576        C  0.11818969  0.71074012  0.06132491     0.36100
H577        H  0.18905042  0.76150398  0.14579773     0.16500
O578        O  0.15614228  0.68034861  0.17197458    -0.60400
H579        H  0.07231706  0.63936758  0.05160769     0.16500
O580        O  0.10439202  0.72016799  0.02555733    -0.60500
H581        H  0.12457002  0.72202927  0.00387655     0.43500
H582        H  0.13832581  0.68378844  0.19376958     0.43500
C583        C  0.28021797  0.89793823  0.07884893    -0.05600
C584        C  0.30554461  0.88139739  0.06065713    -0.33000
C585        C  0.34963590  0.90460068  0.06917237     0.36200
C586        C  0.36955178  0.94616112  0.09429817    -0.06000
C587        C  0.34475437  0.96415006  0.11024153    -0.32900
C588        C  0.30053503  0.94015076  0.10358465     0.36100
H589        H  0.29092842  0.84941558  0.04103734     0.16500
O590        O  0.37290325  0.88625085  0.05306415    -0.60400
H591        H  0.35941763  0.99580562  0.13033406     0.16500
O592        O  0.27739751  0.95617554  0.12484278    -0.60500
H593        H  0.28307835  0.98370740  0.11136961     0.43500
H594        H  0.37099974  0.86506851  0.07359053     0.43500
C595        C  0.09102287  0.92911446  0.09291842    -0.05600
C596        C  0.08309412  0.89267854  0.11604605    -0.33000
C597        C  0.10520000  0.86949528  0.10913108     0.36200
C598        C  0.13509613  0.88132701  0.07738387    -0.06000
C599        C  0.14152961  0.91640906  0.05272132    -0.32900
C600        C  0.11986277  0.94028082  0.06036509     0.36100
H601        H  0.06156202  0.88387031  0.14164564     0.16500
O602        O  0.09913689  0.83721961  0.13555676    -0.60400
H603        H  0.16403827  0.92595509  0.02798613     0.16500
O604        O  0.12766225  0.97487457  0.03631731    -0.60500
H605        H  0.10601311  0.96030833  0.01262806     0.43500
H606        H  0.12178330  0.85354909  0.15819706     0.43500
C607        C  0.04578718  0.63489472  0.35536119    -0.05600
C608        C  0.05964544  0.67211212  0.38573666    -0.33000
C609        C  0.08780148  0.71636304  0.37575007     0.36200
C610        C  0.10272624  0.72423683  0.33478879    -0.06000
C611        C  0.08912082  0.68718772  0.30421026    -0.32900
C612        C  0.06108645  0.64259992  0.31435868     0.36100
H613        H  0.04931356  0.66667952  0.41770631     0.16500
O614        O  0.10059815  0.75190530  0.40631030    -0.60400
H615        H  0.10059739  0.69282382  0.27266107     0.16500
O616        O  0.05186868  0.60680191  0.28515725    -0.60500
H617        H  0.02215051  0.59497425  0.27480339     0.43500
H618        H  0.12797090  0.75733314  0.41843780     0.43500
C619        C  0.33362608  0.92157230  0.35693376    -0.05600
C620        C  0.31667874  0.92462686  0.31856577    -0.33000
C621        C  0.27300642  0.89766890  0.30793330     0.36200
C622        C  0.24539520  0.86691639  0.33571106    -0.06000
C623        C  0.26224779  0.86325517  0.37369694    -0.32900
C624        C  0.30585169  0.89033410  0.38460813     0.36100
H625        H  0.33722202  0.94837911  0.29689737     0.16500
O626        O  0.25739804  0.90227019  0.27067820    -0.60400
H627        H  0.24121652  0.84070379  0.39590829     0.16500
O628        O  0.32038528  0.88874002  0.42384111    -0.60500
H629        H  0.31307901  0.85685205  0.42538760     0.43500
H630        H  0.26205406  0.88288454  0.24909081     0.43500
C631        C  0.11091716  0.87023340  0.32994809    -0.05600
C632        C  0.12367241  0.91158672  0.31253691    -0.33000
C633        C  0.10387793  0.93696592  0.32342535     0.36200
C634        C  0.07028966  0.92040005  0.35121425    -0.06000
C635        C  0.05769009  0.87916494  0.36815200    -0.32900
C636        C  0.07827962  0.85504372  0.35891611     0.36100
H637        H  0.14924818  0.92445542  0.29091667     0.16500
O638        O  0.11787234  0.97789044  0.30728321    -0.60400
H639        H  0.03312455  0.86657842  0.39090028     0.16500
O640        O  0.06763487  0.81787262  0.38047077    -0.60500
H641        H  0.08844698  0.82950787  0.40486476     0.43500
H642        H  0.10309516  0.97016607  0.27916638     0.43500
C643        C  0.42067258  0.56745510  0.22040016    -0.05600
C644        C  0.37616263  0.54353108  0.21634733    -0.33000
C645        C  0.35300448  0.56519256  0.22596849     0.36200
C646        C  0.37414960  0.61149847  0.24237248    -0.06000
C647        C  0.41857140  0.63437084  0.24947895    -0.32900
C648        C  0.44184956  0.61325127  0.23765678     0.36100
H649        H  0.35911298  0.50848173  0.20289735     0.16500
O650        O  0.31032760  0.54187972  0.21502589    -0.60400
H651        H  0.43572653  0.66947302  0.26276418     0.16500
O652        O  0.48535527  0.63803921  0.24258083    -0.60500
H653        H  0.49501600  0.65620292  0.21795779     0.43500
H654        H  0.29701659  0.51818375  0.23501796     0.43500
C655        C  0.36455335  0.75018836  0.22039974    -0.05600
C656        C  0.39097572  0.76317294  0.18607293    -0.33000
C657        C  0.40953397  0.80741204  0.17386588     0.36200
C658        C  0.40105151  0.83942034  0.19557266    -0.06000
C659        C  0.37405678  0.82612322  0.22943917    -0.32900
C660        C  0.35608221  0.78213528  0.24205191     0.36100
H661        H  0.39732461  0.73893921  0.16858447     0.16500
O662        O  0.43558324  0.81874416  0.14044880    -0.60400
H663        H  0.36808961  0.85042201  0.24738805     0.16500
O664        O  0.33239317  0.77151525  0.27721414    -0.60500
H665        H  0.30522171  0.76933812  0.26868647     0.43500
H666        H  0.46361459  0.82564924  0.15222192     0.43500
C667        C  0.14945789  0.55320482  0.22135394    -0.05600
C668        C  0.16549297  0.59620931  0.24319592    -0.33000
C669        C  0.20824030  0.62164654  0.25771919     0.36200
C670        C  0.23567080  0.60441753  0.24896710    -0.06000
C671        C  0.21816438  0.55966275  0.22994481    -0.32900
C672        C  0.17546600  0.53408329  0.21642512     0.36100
H673        H  0.14516827  0.61061508  0.24788436     0.16500
O674        O  0.22297805  0.66314061  0.28028191    -0.60400
H675        H  0.23810492  0.54538752  0.22231789     0.16500
O676        O  0.16034940  0.49183803  0.19530955    -0.60500
H677        H  0.16670674  0.49739065  0.16539464     0.43500
H678        H  0.21842712  0.68216371  0.26143464     0.43500
C679        C  0.36779740  0.61601219  0.48708320    -0.05600
C680        C  0.35914557  0.58414338  0.01335599    -0.33000
C681        C  0.38056729  0.55546244  0.50332117     0.36200
C682        C  0.40495739  0.56213154  0.46736565    -0.06000
C683        C  0.41323177  0.59831930  0.44357917    -0.32900
C684        C  0.39468538  0.62491652  0.45296300     0.36100
H685        H  0.33897412  0.57671840  0.04001795     0.16500
O686        O  0.36758342  0.52167492  0.02654667    -0.60400
H687        H  0.43226261  0.60458075  0.41612846     0.16500
O688        O  0.40091942  0.65754812  0.42690911    -0.60500
H689        H  0.37861950  0.64142309  0.40393549     0.43500
H690        H  0.39046905  0.53460600  0.04908824     0.43500
C691        C  0.39267318  0.84312346  0.46557313    -0.05600
C692        C  0.35929977  0.80955169  0.43875703    -0.33000
C693        C  0.33775942  0.76411329  0.44793880     0.36200
C694        C  0.35057580  0.75150696  0.48370598    -0.06000
C695        C  0.38225595  0.78876289  0.01056302    -0.32900
C696        C  0.40508880  0.83072925  0.50167245     0.36100
H697        H  0.35097624  0.81829504  0.40975143     0.16500
O698        O  0.30662711  0.73174316  0.41994217    -0.60400
H699        H  0.39291527  0.78018643  0.03826305     0.16500
O700        O  0.43809431  0.86607046  0.02528287    -0.60500
H701        H  0.46270371  0.86412744  0.01462114     0.43500
H702        H  0.28102026  0.73405824  0.42552761     0.43500
C703        C  0.22331920  0.59657055  0.48823646    -0.05600
C704        C  0.19402372  0.60933821  0.01457367    -0.33000
C705        C  0.15223205  0.58221866  0.50286851     0.36200
C706        C  0.13447043  0.54410797  0.47297975    -0.06000
C707        C  0.16112560  0.53175266  0.45162452    -0.32900
C708        C  0.20521195  0.55820060  0.45822320     0.36100
H709        H  0.20672011  0.63776882  0.03863466     0.16500
O710        O  0.12404170  0.59573546  0.02676305    -0.60400
H711        H  0.14790769  0.50345846  0.42736880     0.16500
O712        O  0.23025793  0.54799615  0.43301766    -0.60500
H713        H  0.23740857  0.56773439  0.40961820     0.43500
H714        H  0.12461422  0.61998796  0.01123466     0.43500
C715        C  0.27011104  0.62726105  0.49308640     0.03000
C716        C  0.28799722  0.67433366  0.49176009    -0.13200
C717        C  0.33217686  0.70297358  0.49063969     0.00500
C718        C  0.35868930  0.68434620  0.49164340    -0.11700
C719        C  0.34124276  0.63732821  0.49274867     0.03000
C720        C  0.29705663  0.60929277  0.49466802    -0.11100
H721        H  0.26748228  0.68850512  0.48966363     0.08600
H722        H  0.39272868  0.70619945  0.48968140     0.06100
H723        H  0.28340328  0.57293092  0.49519370     0.06000
C724        C  0.28544430  0.63656859  0.75149691     0.03000
C725        C  0.31194736  0.61853990  0.75679847    -0.13200
C726        C  0.35420025  0.64129068  0.74417634     0.00500
C727        C  0.37139801  0.68590431  0.73233878    -0.11700
C728        C  0.34628818  0.70629509  0.73133806     0.03000
C729        C  0.30317871  0.68086495  0.73968974    -0.11100
H730        H  0.29833935  0.58511188  0.76781212     0.08600
H731        H  0.40379707  0.70438785  0.72251425     0.06100
H732        H  0.28285378  0.69454447  0.73376027     0.06000
C733        C  0.19760295  0.84897091  0.82709823     0.03000
C734        C  0.17610305  0.87302162  0.82418907    -0.13200
C735        C  0.13151596  0.84988897  0.81918059     0.00500
C736        C  0.10899811  0.80205396  0.81432095    -0.11700
C737        C  0.12917555  0.77770774  0.82228523     0.03000
C738        C  0.17388566  0.80133681  0.82723795    -0.11100
H739        H  0.19413626  0.90982121  0.82874680     0.08600
H740        H  0.07482441  0.78366620  0.80880700     0.06100
H741        H  0.19011284  0.78291483  0.83258404     0.06000
C742        C  0.23659141  0.87087186  0.57707363     0.03000
C743        C  0.21021588  0.88966716  0.57441684    -0.13200
C744        C  0.16574676  0.86238787  0.57610491     0.00500
C745        C  0.14772393  0.81521514  0.57702267    -0.11700
C746        C  0.17356047  0.79599889  0.57971706     0.03000
C747        C  0.21776556  0.82395095  0.58000564    -0.11100
H748        H  0.22439195  0.92585253  0.57259097     0.08600
H749        H  0.11354784  0.79346907  0.57735077     0.06100
H750        H  0.23751945  0.80908454  0.58368633     0.06000
O751        O  0.07079224  0.99508737  0.87337083    -0.80300
O752        O  0.39602386  0.94719541  0.89760511    -0.80300
O753        O  0.44164772  0.89634167  0.92014840    -0.80300
O754        O  0.46274461  0.46859161  0.82681448    -0.80200
O755        O  0.42011251  0.92611130  0.96937769    -0.80400
O756        O  0.03103266  0.52584596  0.82763240    -0.80300
O757        O  0.40243963  0.99279674  0.84914351    -0.80300
O758        O  0.01148907  0.93013207  0.87671074    -0.80300
C759        C  0.04886079  0.95218065  0.86459265     1.09400
C760        C  0.37908730  0.95759139  0.86800662     1.09300
C761        C  0.41742026  0.89113878  0.94971589     1.09400
C762        C  0.49503010  0.98957884  0.80730869     1.09300
O763        O  0.03730938  0.58534382  0.90299393    -0.80300
O764        O  0.48711076  0.01718224  0.99043744    -0.80300
O765        O  0.06667606  0.48337546  0.94862182    -0.80300
O766        O  0.44183611  0.54190782  0.92096924    -0.80300
O767        O  0.40481637  0.49688724  0.96971414    -0.80300
O768        O  0.07622229  0.55164576  0.94635345    -0.80300
O769        O  0.98943036  0.56338622  0.85285043    -0.80200
O770        O  0.99440299  0.95950101  0.99600735    -0.80300
Co771      Co  0.05140578  0.53797480  0.88882746     1.51500
Co772      Co  0.44560666  0.98560189  0.94294157     1.51700
Co773      Co  0.00158615  0.94482378  0.93438885     1.51600
Co774      Co  0.45279208  0.50137369  0.87498876     1.51500
O775        O  0.49347655  0.99038020  0.90902169    -1.42200
C776        C  0.02234078  0.59535974  0.87304867     1.09300
C777        C  0.49866735  0.99295141  0.51177643     1.09400
C778        C  0.08890478  0.52608057  0.95785818     1.09400
C779        C  0.41667321  0.53298723  0.95213704     1.09300
O780        O  0.09708158  0.00294467  0.60642025    -0.80300
O781        O  0.43420257  0.95017923  0.62170006    -0.80300
O782        O  0.45864676  0.90546104  0.66629889    -0.80300
O783        O  0.50973266  0.54192668  0.57259405    -0.80200
O784        O  0.41064410  0.91741733  0.69848794    -0.80400
O785        O  0.01604721  0.48367417  0.58123666    -0.80300
O786        O  0.43839730  0.01491307  0.61490199    -0.80300
O787        O  0.04066271  0.94238065  0.62824715    -0.80300
C788        C  0.07703214  0.96057795  0.61065414     1.09400
C789        C  0.41837492  0.97211411  0.60792311     1.09300
C790        C  0.42356598  0.89038173  0.68588764     1.09400
C791        C  0.50882145  0.00655507  0.55717326     1.09300
O792        O  0.08456758  0.57623896  0.60221630    -0.80300
O793        O  0.47374974  0.99468819  0.73992714    -0.80300
O794        O  0.08284284  0.49491159  0.70455251    -0.80300
O795        O  0.48653450  0.57563601  0.68837229    -0.80300
O796        O  0.42975384  0.50846838  0.69231868    -0.80300
O797        O  0.10164356  0.55540261  0.67360283    -0.80300
O798        O  0.05897451  0.60734649  0.64635339    -0.80200
O799        O  0.01006061  0.96266688  0.74601034    -0.80300
Co800      Co  0.05761967  0.51729949  0.62919695     1.51500
Co801      Co  0.45689892  0.97159988  0.68086959     1.51700
Co802      Co  0.02170880  0.95901586  0.68478774     1.51600
Co803      Co  0.50028967  0.55713195  0.63296143     1.51500
O804        O  0.51311181  0.01437402  0.66386795    -1.42200
C805        C  0.08567295  0.61142698  0.61959149     1.09300
C806        C  0.49279188  0.98121884  0.76147526     1.09400
C807        C  0.10977456  0.53548588  0.69990479     1.09400
C808        C  0.44915997  0.55155939  0.70046107     1.09300
C809        C  0.15451392  0.74741020  0.58652466    -0.05600
C810        C  0.16859882  0.73523074  0.62158285    -0.33000
C811        C  0.14786461  0.69007917  0.63151328     0.36200
C812        C  0.11351753  0.65642577  0.60555086    -0.06000
C813        C  0.10054043  0.66812282  0.56961241    -0.32900
C814        C  0.12077287  0.71330082  0.55997471     0.36100
H815        H  0.19435451  0.76111493  0.64247131     0.16500
O816        O  0.16056335  0.67929428  0.66715686    -0.60400
H817        H  0.07334635  0.64243888  0.55006080     0.16500
O818        O  0.10643128  0.72401744  0.52541689    -0.60500
H819        H  0.12244147  0.72057824  0.50167800     0.43500
H820        H  0.14527897  0.68509938  0.69030308     0.43500
C821        C  0.28380146  0.90002652  0.58027030    -0.05600
C822        C  0.30906579  0.88415947  0.56065086    -0.33000
C823        C  0.35322703  0.90755448  0.56848684     0.36200
C824        C  0.37313767  0.94877423  0.59408627    -0.06000
C825        C  0.34834202  0.96595291  0.61171251    -0.32900
C826        C  0.30412125  0.94162445  0.60594063     0.36100
H827        H  0.29439801  0.85256743  0.54044706     0.16500
O828        O  0.37653488  0.88963798  0.55145401    -0.60400
H829        H  0.36309180  0.99722303  0.63234446     0.16500
O830        O  0.28107349  0.95659131  0.62892586    -0.60500
H831        H  0.28665260  0.98489863  0.61701637     0.43500
H832        H  0.37501804  0.86826040  0.57154333     0.43500
C833        C  0.09511531  0.93192943  0.59613291    -0.05600
C834        C  0.08432943  0.89301744  0.61664261    -0.33000
C835        C  0.10634056  0.86965440  0.60991126     0.36200
C836        C  0.13888834  0.88382777  0.58070399    -0.06000
C837        C  0.14790482  0.92128961  0.55836470    -0.32900
C838        C  0.12664136  0.94542584  0.56613570     0.36100
H839        H  0.06061461  0.88231684  0.64026954     0.16500
O840        O  0.09743984  0.83485055  0.63419739    -0.60400
H841        H  0.17219957  0.93258575  0.53534920     0.16500
O842        O  0.13749304  0.98259644  0.54467293    -0.60500
H843        H  0.11539969  0.97126456  0.52152509     0.43500
H844        H  0.11763594  0.84922266  0.65905875     0.43500
C845        C  0.04713230  0.64234129  0.85992835    -0.05600
C846        C  0.08326092  0.67470204  0.88490512    -0.33000
C847        C  0.11076552  0.71778768  0.87205775     0.36200
C848        C  0.10268636  0.72996700  0.83341884    -0.06000
C849        C  0.06597190  0.69807977  0.80868237    -0.32900
C850        C  0.03836772  0.65462698  0.82172008     0.36100
H851        H  0.09066590  0.66664227  0.91478371     0.16500
O852        O  0.14412762  0.74872803  0.89886122    -0.60400
H853        H  0.05863739  0.70699698  0.77926217     0.16500
O854        O  0.00349952  0.62418145  0.79653630    -0.60500
H855        H  0.97940492  0.62609476  0.80875889     0.43500
H856        H  0.16557082  0.73909378  0.89688133     0.43500
C857        C  0.33288560  0.92788210  0.85633313    -0.05600
C858        C  0.31574624  0.93248374  0.81878931    -0.33000
C859        C  0.27194009  0.90628817  0.80847424     0.36200
C860        C  0.24438210  0.87449200  0.83557998    -0.06000
C861        C  0.26135824  0.86951651  0.87282313    -0.32900
C862        C  0.30501281  0.89607552  0.88357183     0.36100
H863        H  0.33625228  0.95684723  0.79754245     0.16500
O864        O  0.25624896  0.91256525  0.77213158    -0.60400
H865        H  0.24040770  0.84618510  0.89458642     0.16500
O866        O  0.31954664  0.89314520  0.92225003    -0.60500
H867        H  0.31426843  0.86170690  0.92168001     0.43500
H868        H  0.25369510  0.88827454  0.75103543     0.43500
C869        C  0.10817802  0.87504501  0.82604184    -0.05600
C870        C  0.12479498  0.91925147  0.81326916    -0.33000
C871        C  0.10557132  0.94504486  0.82437682     0.36200
C872        C  0.06823753  0.92600559  0.84709025    -0.06000
C873        C  0.05076790  0.88136521  0.85796866    -0.32900
C874        C  0.07096339  0.85678135  0.84930439     0.36100
H875        H  0.15334512  0.93436703  0.79559648     0.16500
O876        O  0.12418703  0.98897043  0.81394946    -0.60400
H877        H  0.02272589  0.86622656  0.87642382     0.16500
O878        O  0.05540903  0.81627128  0.86675121    -0.60500
H879        H  0.07152335  0.82399577  0.89414237     0.43500
H880        H  0.10693576  0.98768997  0.78928669     0.43500
C881        C  0.42608969  0.57359898  0.71893404    -0.05600
C882        C  0.38159192  0.54888482  0.71588300    -0.33000
C883        C  0.35794499  0.57014601  0.72386409     0.36200
C884        C  0.37849293  0.61682899  0.73877059    -0.06000
C885        C  0.42309610  0.64078617  0.74515090    -0.32900
C886        C  0.44691710  0.61999364  0.73426030     0.36100
H887        H  0.36474617  0.51327456  0.70420052     0.16500
O888        O  0.31534968  0.54592832  0.71249098    -0.60400
H889        H  0.43987880  0.67629190  0.75722055     0.16500
O890        O  0.49044668  0.64555430  0.73829994    -0.60500
H891        H  0.49936918  0.66221869  0.71273081     0.43500
H892        H  0.30224754  0.52191667  0.73219457     0.43500
C893        C  0.36369587  0.75275672  0.71803907    -0.05600
C894        C  0.38638063  0.76469150  0.68116877    -0.33000
C895        C  0.40403064  0.80877587  0.66876376     0.36200
C896        C  0.39889711  0.84173931  0.69328380    -0.06000
C897        C  0.37451713  0.82913120  0.72905276    -0.32900
C898        C  0.35708715  0.78514895  0.74156907     0.36100
H899        H  0.39063077  0.73980635  0.66199840     0.16500
O900        O  0.42588467  0.81915202  0.63243371    -0.60400
H901        H  0.37077741  0.85409098  0.74872145     0.16500
O902        O  0.33614437  0.77505092  0.77844532    -0.60500
H903        H  0.30822884  0.77212292  0.77208073     0.43500
H904        H  0.45418683  0.82356101  0.63994197     0.43500
C905        C  0.15227195  0.55700095  0.72049349    -0.05600
C906        C  0.16768819  0.59637222  0.74835221    -0.33000
C907        C  0.21065055  0.62077141  0.76248784     0.36200
C908        C  0.23859180  0.60609224  0.74783991    -0.06000
C909        C  0.22200152  0.56480918  0.72231613    -0.32900
C910        C  0.17928854  0.54040845  0.70864017     0.36100
H911        H  0.14675785  0.60886374  0.75814305     0.16500
O912        O  0.22525986  0.65897105  0.79024048    -0.60400
H913        H  0.24278939  0.55307283  0.71010941     0.16500
O914        O  0.16490367  0.50203556  0.68119276    -0.60500
H915        H  0.17081034  0.51304557  0.65273105     0.43500
H916        H  0.22208320  0.68125541  0.77492414     0.43500
C917        C  0.36531574  0.61894334  0.98867489    -0.05600
C918        C  0.36209260  0.58208046  0.51271597    -0.33000
C919        C  0.37685791  0.55699208  0.00285417     0.36200
C920        C  0.40190752  0.56466321  0.96722921    -0.06000
C921        C  0.41013552  0.60124341  0.94400862    -0.32900
C922        C  0.39166027  0.62783209  0.95407858     0.36100
H923        H  0.34195433  0.57511450  0.53937012     0.16500
O924        O  0.37306157  0.52189099  0.52863425    -0.60400
H925        H  0.42913606  0.60787197  0.91651273     0.16500
O926        O  0.39733429  0.66037856  0.92815235    -0.60500
H927        H  0.37322602  0.64477871  0.90695865     0.43500
H928        H  0.39661208  0.53655710  0.55048987     0.43500
C929        C  0.39108368  0.84546347  0.96385211    -0.05600
C930        C  0.35726966  0.81140037  0.93774701    -0.33000
C931        C  0.33541250  0.76633644  0.94819854     0.36200
C932        C  0.34842166  0.75458004  0.98444754    -0.06000
C933        C  0.38390063  0.78520180  0.51067782    -0.32900
C934        C  0.40371643  0.83384927  0.00032177     0.36100
H935        H  0.34868407  0.81944245  0.90847990     0.16500
O936        O  0.30365052  0.73344125  0.92106605    -0.60400
H937        H  0.39438212  0.77593875  0.53803386     0.16500
O938        O  0.43915154  0.86255682  0.52723838    -0.60500
H939        H  0.46375755  0.86018520  0.51733372     0.43500
H940        H  0.27826178  0.73605256  0.92699289     0.43500
C941        C  0.22158235  0.59978959  0.99115069    -0.05600
C942        C  0.19631236  0.60758161  0.51104700    -0.33000
C943        C  0.15007340  0.58381832  0.00561768     0.36200
C944        C  0.13305372  0.54715061  0.97419370    -0.06000
C945        C  0.16029947  0.53608966  0.95229189    -0.32900
C946        C  0.20426387  0.56264793  0.95982315     0.36100
H947        H  0.20952011  0.63690384  0.53414509     0.16500
O948        O  0.12677402  0.59534499  0.52358402    -0.60400
H949        H  0.14770018  0.50895460  0.92691856     0.16500
O950        O  0.23004580  0.55393372  0.93429227    -0.60500
H951        H  0.23693353  0.57423324  0.91140240     0.43500
H952        H  0.12819095  0.61989324  0.50790222     0.43500
C953        C  0.76737705  0.13146141  0.99058849     0.03000
C954        C  0.78528114  0.17849946  0.98891509    -0.13200
C955        C  0.82954204  0.20711954  0.98828176     0.00500
C956        C  0.85594449  0.18838918  0.99019082    -0.11700
C957        C  0.83836912  0.14141263  0.99177243     0.03000
C958        C  0.79418337  0.11346836  0.99304980    -0.11100
H959        H  0.76474143  0.19259136  0.98642024     0.08600
H960        H  0.89004812  0.21010306  0.98859805     0.06100
H961        H  0.78041022  0.07710020  0.99373570     0.06000
C962        C  0.77993299  0.13326675  0.25199080     0.03000
C963        C  0.80584340  0.11479401  0.25893883    -0.13200
C964        C  0.84799700  0.13616819  0.24621872     0.00500
C965        C  0.86597109  0.18021684  0.23273578    -0.11700
C966        C  0.84160044  0.20126038  0.22987673     0.03000
C967        C  0.79830698  0.17668904  0.23778339    -0.11100
H968        H  0.79200856  0.08205984  0.27147282     0.08600
H969        H  0.89856202  0.19782139  0.22336738     0.06100
H970        H  0.77850910  0.19051686  0.23017588     0.06000
C971        C  0.69956473  0.34101642  0.32454447     0.03000
C972        C  0.67911496  0.36616906  0.32074816    -0.13200
C973        C  0.63453072  0.34425551  0.31765829     0.00500
C974        C  0.61069967  0.29652865  0.31421920    -0.11700
C975        C  0.62998945  0.27119406  0.32124311     0.03000
C976        C  0.67460385  0.29349545  0.32636011    -0.11100
H977        H  0.69783121  0.40299560  0.32390334     0.08600
H978        H  0.57628858  0.27920527  0.31117599     0.06100
H979        H  0.68966821  0.27423830  0.33314256     0.06000
C980        C  0.73519163  0.36894899  0.07814082     0.03000
C981        C  0.70878167  0.38745398  0.07291410    -0.13200
C982        C  0.66414797  0.35999003  0.07313188     0.00500
C983        C  0.64614625  0.31288967  0.07469958    -0.11700
C984        C  0.67190083  0.29406071  0.08031399     0.03000
C985        C  0.71611032  0.32221123  0.08256623    -0.11100
H986        H  0.72285333  0.42344275  0.07006118     0.08600
H987        H  0.61191430  0.29093501  0.07356781     0.06100
H988        H  0.73559916  0.30752096  0.08858784     0.06000
O989        O  0.57231182  0.48930656  0.37019922    -0.80300
O990        O  0.89788117  0.44163747  0.39791868    -0.80300
O991        O  0.94424548  0.39338273  0.42393538    -0.80300
O992        O  0.96258066  0.96535429  0.33091282    -0.80200
O993        O  0.92238689  0.42388431  0.47195004    -0.80400
O994        O  0.52889309  0.01934543  0.32539710    -0.80300
O995        O  0.90374303  0.48656558  0.34903403    -0.80300
O996        O  0.51388294  0.42384140  0.37544557    -0.80300
C997        C  0.55115710  0.44615951  0.36302270     1.09400
C998        C  0.88077210  0.45104453  0.36765672     1.09300
C999        C  0.91997267  0.38870084  0.45327420     1.09400
C1000       C  0.99718243  0.48475221  0.30814491     1.09300
O1001       O  0.53750430  0.08121099  0.39999542    -0.80300
O1002       O  0.98824755  0.51564561  0.49074951    -0.80300
O1003       O  0.56666033  0.97894975  0.44724779    -0.80300
O1004       O  0.94396230  0.03952756  0.42562414    -0.80300
O1005       O  0.90629935  0.99455605  0.47411353    -0.80300
O1006       O  0.57612137  0.04706917  0.44358908    -0.80300
O1007       O  0.48801033  0.05714786  0.35091992    -0.80200
O1008       O  0.49683518  0.45677955  0.49388051    -0.80300
Co1009     Co  0.55041709  0.03262406  0.38642896     1.51500
Co1010     Co  0.94704035  0.48193783  0.44330637     1.51700
Co1011     Co  0.50375385  0.44037436  0.43254026     1.51600
Co1012     Co  0.95354480  0.99841347  0.37943536     1.51500
O1013       O  0.99561533  0.48689814  0.41032547    -1.42200
C1014       C  0.52108669  0.08982282  0.37022168     1.09300
C1015       C  0.99763215  0.49529865  0.01247126     1.09400
C1016       C  0.58911178  0.02178197  0.45518155     1.09400
C1017       C  0.91880664  0.03087340  0.45669480     1.09300
O1018       O  0.59319424  0.49934509  0.09958313    -0.80300
O1019       O  0.93348346  0.44784721  0.12369586    -0.80300
O1020       O  0.95915062  0.40225452  0.16625663    -0.80300
O1021       O  0.00455533  0.04115224  0.07691592    -0.80200
O1022       O  0.91201495  0.41406696  0.20026267    -0.80400
O1023       O  0.51439230  0.98212985  0.07917789    -0.80300
O1024       O  0.93715606  0.51267662  0.11864218    -0.80300
O1025       O  0.53778614  0.43872626  0.12249160    -0.80300
C1026       C  0.57380927  0.45706112  0.10427074     1.09400
C1027       C  0.91727929  0.46990114  0.11093707     1.09300
C1028       C  0.92444646  0.38696395  0.18647341     1.09400
C1029       C  0.00728037  0.50711763  0.05806982     1.09300
O1030       O  0.58154226  0.07458948  0.10245345    -0.80300
O1031       O  0.97561988  0.49128241  0.24144617    -0.80300
O1032       O  0.57904422  0.99129598  0.20315857    -0.80300
O1033       O  0.98069335  0.07136752  0.19343498    -0.80300
O1034       O  0.92494413  0.00347874  0.19739691    -0.80300
O1035       O  0.59739940  0.05262831  0.17386393    -0.80300
O1036       O  0.55503270  0.10416754  0.14723035    -0.80200
O1037       O  0.51032235  0.45803864  0.24198474    -0.80300
Co1038     Co  0.55482208  0.01496314  0.12821197     1.51500
Co1039     Co  0.95753896  0.46860762  0.18248404     1.51700
Co1040     Co  0.52027095  0.45429057  0.18034200     1.51600
Co1041     Co  0.99492666  0.05445655  0.13756738     1.51500
O1042       O  0.01313194  0.51188724  0.16472736    -1.42200
C1043       C  0.58211070  0.10923232  0.12051490     1.09300
C1044       C  0.99454981  0.47708923  0.26217478     1.09400
C1045       C  0.60520621  0.03242980  0.20010573     1.09400
C1046       C  0.94337796  0.04654411  0.20540178     1.09300
C1047       C  0.65247752  0.24562916  0.08789202    -0.05600
C1048       C  0.66356410  0.23401122  0.12523117    -0.33000
C1049       C  0.64217954  0.18891117  0.13539225     0.36200
C1050       C  0.61019009  0.15477431  0.10752404    -0.06000
C1051       C  0.60015099  0.16601671  0.06957016    -0.32900
C1052       C  0.62117548  0.21109758  0.05954040     0.36100
H1053       H  0.68748637  0.26025071  0.14743741     0.16500
O1054       O  0.65210970  0.17856673  0.17287889    -0.60400
H1055       H  0.57468677  0.14000782  0.04847040     0.16500
O1056       O  0.61003638  0.22129890  0.02262940    -0.60500
H1057       H  0.62844568  0.21819334  0.00134805     0.43500
H1058       H  0.63494810  0.18426583  0.19395946     0.43500
C1059       C  0.78257486  0.39792423  0.08173138    -0.05600
C1060       C  0.80770254  0.38035753  0.06507844    -0.33000
C1061       C  0.85177832  0.40356050  0.07349996     0.36200
C1062       C  0.87205299  0.44643261  0.09643956    -0.06000
C1063       C  0.84748807  0.46529658  0.11088188    -0.32900
C1064       C  0.80321429  0.44117828  0.10471465     0.36100
H1065       H  0.79298560  0.34761130  0.04672557     0.16500
O1066       O  0.87465721  0.38386821  0.05952763    -0.60400
H1067       H  0.86240110  0.49793053  0.12942244     0.16500
O1068       O  0.78042663  0.45835286  0.12481243    -0.60500
H1069       H  0.78646305  0.48543345  0.11032635     0.43500
H1070       H  0.87161052  0.36308703  0.08095485     0.43500
C1071       C  0.59223144  0.42858786  0.08997477    -0.05600
C1072       C  0.58161927  0.39001851  0.11096908    -0.33000
C1073       C  0.60391233  0.36691109  0.10502074     0.36200
C1074       C  0.63684242  0.38104819  0.07625422    -0.06000
C1075       C  0.64564226  0.41801171  0.05319730    -0.32900
C1076       C  0.62377775  0.44176395  0.05996958     0.36100
H1077       H  0.55777642  0.37938879  0.13446649     0.16500
O1078       O  0.59489879  0.33239353  0.12972938    -0.60400
H1079       H  0.67019551  0.42919521  0.03045344     0.16500
O1080       O  0.63412252  0.47828491  0.03767323    -0.60500
H1081       H  0.61438974  0.46548407  0.01241003     0.43500
H1082       H  0.61418186  0.34721359  0.15519761     0.43500
C1083       C  0.54437121  0.13617049  0.35607622    -0.05600
C1084       C  0.56449659  0.17346168  0.38668906    -0.33000
C1085       C  0.59318356  0.21703982  0.37540410     0.36200
C1086       C  0.60242715  0.22419884  0.33289244    -0.06000
C1087       C  0.58182379  0.18727559  0.30196876    -0.32900
C1088       C  0.55328954  0.14331980  0.31331323     0.36100
H1089       H  0.55863190  0.16856506  0.41972487     0.16500
O1090       O  0.61158719  0.25275568  0.40614261    -0.60400
H1091       H  0.58843005  0.19245222  0.26910546     0.16500
O1092       O  0.53758546  0.10727735  0.28288342    -0.60500
H1093       H  0.50650759  0.09483298  0.28073272     0.43500
H1094       H  0.63817704  0.25423181  0.41559663     0.43500
C1095       C  0.83486575  0.41999376  0.35493208    -0.05600
C1096       C  0.81817216  0.42359589  0.31658926    -0.33000
C1097       C  0.77449443  0.39686107  0.30557325     0.36200
C1098       C  0.74647512  0.36569889  0.33291664    -0.06000
C1099       C  0.76312519  0.36124282  0.37065622    -0.32900
C1100       C  0.80673984  0.38806336  0.38194398     0.36100
H1101       H  0.83891860  0.44774339  0.29530524     0.16500
O1102       O  0.75935642  0.40217350  0.26836663    -0.60400
H1103       H  0.74189594  0.33829568  0.39250576     0.16500
O1104       O  0.82094305  0.38559268  0.42101505    -0.60500
H1105       H  0.81180427  0.35316714  0.42276041     0.43500
H1106       H  0.75621629  0.37685213  0.24835803     0.43500
C1107       C  0.61248683  0.37036156  0.32663639    -0.05600
C1108       C  0.62501382  0.41146628  0.30886855    -0.33000
C1109       C  0.60511789  0.43678180  0.31954891     0.36200
C1110       C  0.57176960  0.42049040  0.34760292    -0.06000
C1111       C  0.55950671  0.37958643  0.36506162    -0.32900
C1112       C  0.58009981  0.35544175  0.35590366     0.36100
H1113       H  0.65037004  0.42408737  0.28699835     0.16500
O1114       O  0.61863046  0.47727119  0.30274485    -0.60400
H1115       H  0.53508597  0.36721262  0.38797096     0.16500
O1116       O  0.56952129  0.31834630  0.37757679    -0.60500
H1117       H  0.59060179  0.32995071  0.40172260     0.43500
H1118       H  0.60172464  0.46910199  0.27581813     0.43500
C1119       C  0.91955002  0.06788031  0.22367883    -0.05600
C1120       C  0.87500500  0.04305620  0.21998605    -0.33000
C1121       C  0.85118174  0.06423097  0.22810149     0.36200
C1122       C  0.87171179  0.11101442  0.24271523    -0.06000
C1123       C  0.91613517  0.13480747  0.24993639    -0.32900
C1124       C  0.94007444  0.11413651  0.23947134     0.36100
H1125       H  0.85841758  0.00761313  0.20766779     0.16500
O1126       O  0.80847827  0.03986889  0.21725243    -0.60400
H1127       H  0.93278221  0.17030469  0.26204634     0.16500
O1128       O  0.98355534  0.13989774  0.24398348    -0.60500
H1129       H  0.99264445  0.15741245  0.21892812     0.43500
H1130       H  0.79557841  0.01684346  0.23793238     0.43500
C1131       C  0.86042469  0.24799889  0.21653492    -0.05600
C1132       C  0.88659224  0.26074128  0.18197365    -0.33000
C1133       C  0.90622358  0.30534944  0.17038479     0.36200
C1134       C  0.89937799  0.33804084  0.19319762    -0.06000
C1135       C  0.87184607  0.32469827  0.22663456    -0.32900
C1136       C  0.85261266  0.28032142  0.23846802     0.36100
H1137       H  0.89216594  0.23613698  0.16405852     0.16500
O1138       O  0.93182876  0.31646897  0.13661919    -0.60400
H1139       H  0.86671635  0.34932116  0.24514516     0.16500
O1140       O  0.82867404  0.26979042  0.27345932    -0.60500
H1141       H  0.80189718  0.26842650  0.26487219     0.43500
H1142       H  0.95926568  0.32085646  0.14744549     0.43500
C1143       C  0.64679164  0.05431544  0.22241804    -0.05600
C1144       C  0.66304840  0.09647135  0.24605974    -0.33000
C1145       C  0.70588431  0.12097535  0.26054080     0.36200
C1146       C  0.73291759  0.10370831  0.24986594    -0.06000
C1147       C  0.71513908  0.05964120  0.22934216    -0.32900
C1148       C  0.67248394  0.03499034  0.21582660     0.36100
H1149       H  0.64293710  0.11093133  0.25216487     0.16500
O1150       O  0.72124748  0.16168951  0.28471141    -0.60400
H1151       H  0.73495144  0.04550614  0.22039176     0.16500
O1152       O  0.65708268  0.99356870  0.19296998    -0.60500
H1153       H  0.66306309  0.00050529  0.16328162     0.43500
H1154       H  0.71747660  0.18201990  0.26693765     0.43500
C1155       C  0.86691045  0.11653320  0.48987350    -0.05600
C1156       C  0.85892181  0.08632977  0.01310874    -0.33000
C1157       C  0.87817011  0.05497981  0.50595868     0.36200
C1158       C  0.90459039  0.06301045  0.47145648    -0.06000
C1159       C  0.91442993  0.10024958  0.44854755    -0.32900
C1160       C  0.89564686  0.12670221  0.45730158     0.36100
H1161       H  0.83861084  0.07970202  0.03958713     0.16500
O1162       O  0.86925584  0.02586666  0.02988057    -0.60400
H1163       H  0.93495765  0.10751353  0.42220402     0.16500
O1164       O  0.90348520  0.16043091  0.43199276    -0.60500
H1165       H  0.88121382  0.14558578  0.40888769     0.43500
H1166       H  0.89251849  0.04031885  0.05205962     0.43500
C1167       C  0.89275470  0.34316952  0.46714742    -0.05600
C1168       C  0.86004550  0.30969829  0.43970188    -0.33000
C1169       C  0.83787554  0.26432009  0.44892226     0.36200
C1170       C  0.84938533  0.25161308  0.48545035    -0.06000
C1171       C  0.88259125  0.28894914  0.00812802    -0.32900
C1172       C  0.90391859  0.33073271  0.50400108     0.36100
H1173       H  0.85285061  0.31844337  0.41011447     0.16500
O1174       O  0.80758347  0.23204951  0.42020429    -0.60400
H1175       H  0.89318664  0.27922044  0.03507250     0.16500
O1176       O  0.93904549  0.36567836  0.02454188    -0.60500
H1177       H  0.96374796  0.36519720  0.01210158     0.43500
H1178       H  0.78192259  0.23458778  0.42448192     0.43500
C1179       C  0.72220769  0.09601784  0.48561605    -0.05600
C1180       C  0.69352576  0.11055023  0.00916378    -0.33000
C1181       C  0.65097860  0.07977828  0.50155103     0.36200
C1182       C  0.63358591  0.04311170  0.47022013    -0.06000
C1183       C  0.66050145  0.03216774  0.44747172    -0.32900
C1184       C  0.70457962  0.05889907  0.45427170     0.36100
H1185       H  0.70655245  0.13971558  0.03243635     0.16500
O1186       O  0.62368914  0.09647942  0.02295375    -0.60400
H1187       H  0.64749750  0.00492833  0.42218796     0.16500
O1188       O  0.73008729  0.05024112  0.42826916    -0.60500
H1189       H  0.73547329  0.06942336  0.40467787     0.43500
H1190       H  0.62326179  0.11971427  0.00662148     0.43500
C1191       C  0.76878161  0.12682738  0.49134524     0.03000
C1192       C  0.78653847  0.17399620  0.49119498    -0.13200
C1193       C  0.83080084  0.20299440  0.49211547     0.00500
C1194       C  0.85741014  0.18459074  0.49436420    -0.11700
C1195       C  0.83999383  0.13744587  0.49421198     0.03000
C1196       C  0.79569868  0.10898038  0.49355943    -0.11100
H1197       H  0.76593049  0.18798431  0.48847638     0.08600
H1198       H  0.89157684  0.20673862  0.49416320     0.06100
H1199       H  0.78202936  0.07250013  0.49291047     0.06000
C1200       C  0.78258256  0.13715769  0.75087093     0.03000
C1201       C  0.80960974  0.11977664  0.75649149    -0.13200
C1202       C  0.85157113  0.14249013  0.74319012     0.00500
C1203       C  0.86831523  0.18681047  0.73087790    -0.11700
C1204       C  0.84295466  0.20684326  0.72966503     0.03000
C1205       C  0.79985384  0.18111125  0.73800755    -0.11100
H1206       H  0.79677656  0.08687761  0.76847301     0.08600
H1207       H  0.90067454  0.20544506  0.72099930     0.06100
H1208       H  0.77941182  0.19450966  0.73165614     0.06000
C1209       C  0.69912633  0.34665576  0.82455484     0.03000
C1210       C  0.67717985  0.37030534  0.82200309    -0.13200
C1211       C  0.63250528  0.34685212  0.81803208     0.00500
C1212       C  0.61018928  0.29896743  0.81330931    -0.11700
C1213       C  0.63110284  0.27486491  0.81913992     0.03000
C1214       C  0.67581140  0.29892061  0.82430011    -0.11100
H1215       H  0.69493102  0.40712710  0.82642632     0.08600
H1216       H  0.57582312  0.28028216  0.80942311     0.06100
H1217       H  0.69224873  0.28074078  0.82981322     0.06000
C1218       C  0.73606534  0.36992668  0.57549565     0.03000
C1219       C  0.70899506  0.38775895  0.57130970    -0.13200
C1220       C  0.66441519  0.35941691  0.57114296     0.00500
C1221       C  0.64715697  0.31232399  0.57196866    -0.11700
C1222       C  0.67368897  0.29425432  0.57661907     0.03000
C1223       C  0.71781649  0.32305614  0.57854891    -0.11100
H1224       H  0.72256911  0.42392547  0.56978640     0.08600
H1225       H  0.61299765  0.28982995  0.57123600     0.06100
H1226       H  0.73790868  0.30890502  0.58387508     0.06000
O1227       O  0.57136839  0.49279844  0.87113090    -0.80300
O1228       O  0.89704583  0.44830433  0.89823839    -0.80300
O1229       O  0.94324675  0.39862029  0.92082330    -0.80300
O1230       O  0.96241139  0.97000365  0.82952194    -0.80200
O1231       O  0.92148456  0.42792328  0.97027096    -0.80400
O1232       O  0.52910209  0.02235956  0.82569379    -0.80300
O1233       O  0.90334250  0.49381375  0.84972670    -0.80300
O1234       O  0.51229816  0.42785961  0.87528219    -0.80300
C1235       C  0.54972214  0.44968837  0.86333671     1.09400
C1236       C  0.88011169  0.45835550  0.86831530     1.09300
C1237       C  0.91885768  0.39320701  0.95029192     1.09400
C1238       C  0.99733927  0.49285836  0.80901241     1.09300
O1239       O  0.53623456  0.08346632  0.90053860    -0.80300
O1240       O  0.98762425  0.51889148  0.99177630    -0.80300
O1241       O  0.56527428  0.98170721  0.94740921    -0.80300
O1242       O  0.94208367  0.04287992  0.92378021    -0.80300
O1243       O  0.90368408  0.99730468  0.97171590    -0.80300
O1244       O  0.57427059  0.04970051  0.94461439    -0.80300
O1245       O  0.48876786  0.06111685  0.85016662    -0.80200
O1246       O  0.49506184  0.45916533  0.99371301    -0.80300
Co1247     Co  0.54975839  0.03561705  0.88705117     1.51500
Co1248     Co  0.94645195  0.48715167  0.94391628     1.51700
Co1249     Co  0.50232552  0.44388183  0.93246738     1.51600
Co1250     Co  0.95255016  0.00268551  0.87766290     1.51500
O1251       O  0.99487956  0.49258229  0.91042829    -1.42200
C1252       C  0.52203317  0.09315468  0.86980888     1.09300
C1253       C  0.99854709  0.49321435  0.51276621     1.09400
C1254       C  0.58738187  0.02454083  0.95616416     1.09400
C1255       C  0.91642750  0.03380953  0.95442797     1.09300
O1256       O  0.59445829  0.49858354  0.60019364    -0.80300
O1257       O  0.93406485  0.45131814  0.62457886    -0.80300
O1258       O  0.96004634  0.40763680  0.66915240    -0.80300
O1259       O  0.01243583  0.04551895  0.57590173    -0.80200
O1260       O  0.91292921  0.42043686  0.70224942    -0.80400
O1261       O  0.51678063  0.98323237  0.58005661    -0.80300
O1262       O  0.93812779  0.51585057  0.61692345    -0.80300
O1263       O  0.53921337  0.43880431  0.62454119    -0.80300
C1264       C  0.57472530  0.45642853  0.60537218     1.09400
C1265       C  0.91792015  0.47296033  0.61068637     1.09300
C1266       C  0.92510673  0.39295226  0.68894367     1.09400
C1267       C  0.00817987  0.50692590  0.55815436     1.09300
O1268       O  0.58460171  0.07578746  0.60273377    -0.80300
O1269       O  0.97688546  0.49869966  0.74165034    -0.80300
O1270       O  0.58089113  0.99219791  0.70376912    -0.80300
O1271       O  0.98589323  0.07818997  0.69020260    -0.80300
O1272       O  0.92952912  0.01082896  0.69384602    -0.80300
O1273       O  0.59954716  0.05383211  0.67489736    -0.80300
O1274       O  0.55846343  0.10624463  0.64676436    -0.80200
O1275       O  0.51130323  0.46118437  0.74316328    -0.80300
Co1276     Co  0.55710924  0.01640945  0.62914220     1.51500
Co1277     Co  0.95858633  0.47411253  0.68318119     1.51700
Co1278     Co  0.52153964  0.45646359  0.68155456     1.51600
Co1279     Co  0.00119723  0.05997587  0.63564497     1.51500
O1280       O  0.01443146  0.51630328  0.66481648    -1.42200
C1281       C  0.58548148  0.11081320  0.62022583     1.09300
C1282       C  0.99550141  0.48481479  0.76322824     1.09400
C1283       C  0.60739924  0.03326039  0.70071842     1.09400
C1284       C  0.94825194  0.05393664  0.70142802     1.09300
C1285       C  0.65524951  0.24627436  0.58510290    -0.05600
C1286       C  0.66419379  0.23631516  0.62439922    -0.33000
C1287       C  0.64309742  0.19160478  0.63553780     0.36200
C1288       C  0.61367399  0.15614489  0.60672295    -0.06000
C1289       C  0.60571748  0.16586936  0.56696506    -0.32900
C1290       C  0.62649998  0.21061789  0.55592201     0.36100
H1291       H  0.68606792  0.26355810  0.64723727     0.16500
O1292       O  0.65061258  0.18294473  0.67493592    -0.60400
H1293       H  0.58170623  0.13899126  0.54527500     0.16500
O1294       O  0.61738851  0.21939713  0.51724924    -0.60500
H1295       H  0.63816857  0.21761606  0.49833891     0.43500
H1296       H  0.63096964  0.18764958  0.69330294     0.43500
C1297       C  0.78328458  0.39978294  0.58005857    -0.05600
C1298       C  0.80941176  0.38464121  0.56126242    -0.33000
C1299       C  0.85342358  0.40831983  0.57030409     0.36200
C1300       C  0.87256991  0.44920736  0.59639772    -0.06000
C1301       C  0.84696767  0.46577930  0.61326480    -0.32900
C1302       C  0.80271977  0.44107657  0.60621656     0.36100
H1303       H  0.79547691  0.35330997  0.54071227     0.16500
O1304       O  0.87738947  0.39099451  0.55384098    -0.60400
H1305       H  0.86109017  0.49690366  0.63404201     0.16500
O1306       O  0.77869792  0.45540325  0.62825646    -0.60500
H1307       H  0.78398473  0.48341655  0.61595153     0.43500
H1308       H  0.87509717  0.36900435  0.57359068     0.43500
C1309       C  0.59221606  0.42728570  0.59022647    -0.05600
C1310       C  0.58233971  0.38902494  0.61144167    -0.33000
C1311       C  0.60447631  0.36578246  0.60454659     0.36200
C1312       C  0.63652947  0.37969264  0.57484035    -0.06000
C1313       C  0.64425471  0.41604144  0.55142798    -0.32900
C1314       C  0.62247016  0.43974042  0.55894178     0.36100
H1315       H  0.55934713  0.37883349  0.63575909     0.16500
O1316       O  0.59630344  0.33141630  0.62915268    -0.60400
H1317       H  0.66806561  0.42688763  0.52791522     0.16500
O1318       O  0.63170801  0.47560374  0.53612033    -0.60500
H1319       H  0.61019847  0.46241519  0.51231296     0.43500
H1320       H  0.61409449  0.34671962  0.65545466     0.43500
C1321       C  0.54801539  0.13951320  0.85546781    -0.05600
C1322       C  0.57904349  0.17417999  0.88391310    -0.33000
C1323       C  0.60764014  0.21711215  0.87135492     0.36200
C1324       C  0.60528289  0.22703173  0.82982544    -0.06000
C1325       C  0.57444626  0.19259107  0.80099140    -0.32900
C1326       C  0.54650345  0.14881489  0.81335822     0.36100
H1327       H  0.58149412  0.16796000  0.91630726     0.16500
O1328       O  0.63652690  0.25004239  0.90065498    -0.60400
H1329       H  0.57226181  0.19964713  0.76884926     0.16500
O1330       O  0.51965387  0.11493491  0.78361447    -0.60500
H1331       H  0.49076350  0.10864121  0.79035708     0.43500
H1332       H  0.66075744  0.24465806  0.90158044     0.43500
C1333       C  0.83405025  0.42797639  0.85600373    -0.05600
C1334       C  0.81755928  0.43007456  0.81688210    -0.33000
C1335       C  0.77389490  0.40295752  0.80580994     0.36200
C1336       C  0.74585719  0.37276220  0.83375617    -0.06000
C1337       C  0.76218478  0.37042553  0.87264152    -0.32900
C1338       C  0.80566367  0.39788199  0.88408607     0.36100
H1339       H  0.83847656  0.45311763  0.79493912     0.16500
O1340       O  0.75879351  0.40682132  0.76790495    -0.60400
H1341       H  0.74081068  0.34848582  0.89502031     0.16500
O1342       O  0.81948679  0.39768944  0.92409726    -0.60500
H1343       H  0.81449916  0.36663380  0.92595549     0.43500
H1344       H  0.75700356  0.38169060  0.74850696     0.43500
C1345       C  0.60919381  0.37198308  0.82574761    -0.05600
C1346       C  0.62415688  0.41498848  0.81079051    -0.33000
C1347       C  0.60493523  0.44084438  0.82181778     0.36200
C1348       C  0.56945959  0.42326017  0.84716704    -0.06000
C1349       C  0.55395497  0.37996485  0.86102666    -0.32900
C1350       C  0.57394717  0.35511117  0.85170921     0.36100
H1351       H  0.65131832  0.42900528  0.79114137     0.16500
O1352       O  0.62156394  0.48338179  0.80833956    -0.60400
H1353       H  0.52747260  0.36613409  0.88158677     0.16500
O1354       O  0.56009024  0.31561026  0.87053407    -0.60500
H1355       H  0.57851448  0.32449779  0.89654248     0.43500
H1356       H  0.60326519  0.47933697  0.78346700     0.43500
C1357       C  0.92452206  0.07585509  0.71856718    -0.05600
C1358       C  0.87999687  0.05070135  0.71560390    -0.33000
C1359       C  0.85596730  0.07161916  0.72344122     0.36200
C1360       C  0.87618230  0.11839721  0.73791107    -0.06000
C1361       C  0.92079314  0.14290373  0.74373427    -0.32900
C1362       C  0.94494203  0.12254306  0.73289227     0.36100
H1363       H  0.86344716  0.01497923  0.70430918     0.16500
O1364       O  0.81327917  0.04693003  0.71254026    -0.60400
H1365       H  0.93736601  0.17855642  0.75529619     0.16500
O1366       O  0.98844238  0.14893018  0.73584080    -0.60500
H1367       H  0.99638217  0.16484172  0.70977406     0.43500
H1368       H  0.80057308  0.02337044  0.73275784     0.43500
C1369       C  0.86063138  0.25359698  0.71694596    -0.05600
C1370       C  0.88488138  0.26640797  0.68111421    -0.33000
C1371       C  0.90437926  0.31119560  0.67026115     0.36200
C1372       C  0.89935514  0.34403694  0.69515288    -0.06000
C1373       C  0.87336789  0.33064439  0.72978687    -0.32900
C1374       C  0.85416079  0.28591526  0.74082777     0.36100
H1375       H  0.88924508  0.24172477  0.66173667     0.16500
O1376       O  0.92817291  0.32242034  0.63519102    -0.60400
H1377       H  0.86964418  0.35544253  0.74974431     0.16500
O1378       O  0.83175424  0.27498834  0.77679825    -0.60500
H1379       H  0.80432591  0.27284009  0.76954297     0.43500
H1380       H  0.95581503  0.32593243  0.64403364     0.43500
C1381       C  0.64911366  0.05506517  0.72289218    -0.05600
C1382       C  0.66489543  0.09693391  0.74684732    -0.33000
C1383       C  0.70784642  0.12230494  0.76075011     0.36200
C1384       C  0.73563912  0.10633461  0.74910595    -0.06000
C1385       C  0.71843642  0.06233249  0.72841602    -0.32900
C1386       C  0.67551889  0.03667551  0.71558850     0.36100
H1387       H  0.64425454  0.11060982  0.75357842     0.16500
O1388       O  0.72256360  0.16264469  0.78535701    -0.60400
H1389       H  0.73875550  0.04900466  0.71890763     0.16500
O1390       O  0.66048598  0.99524258  0.69285855    -0.60500
H1391       H  0.66677828  0.00212273  0.66318473     0.43500
H1392       H  0.71748825  0.18258579  0.76823163     0.43500
C1393       C  0.86481036  0.11994295  0.98692849    -0.05600
C1394       C  0.85954452  0.08150118  0.51476128    -0.33000
C1395       C  0.87733548  0.05951211  0.00438801     0.36200
C1396       C  0.90205419  0.06591790  0.96872546    -0.06000
C1397       C  0.91019466  0.10158184  0.94422171    -0.32900
C1398       C  0.89152883  0.12814594  0.95279309     0.36100
H1399       H  0.83786975  0.07350128  0.54019237     0.16500
O1400       O  0.86868791  0.02007467  0.53024159    -0.60400
H1401       H  0.92920912  0.10742217  0.91679586     0.16500
O1402       O  0.89738553  0.15995752  0.92588337    -0.60500
H1403       H  0.87424613  0.14345040  0.90374672     0.43500
H1404       H  0.89181612  0.03321700  0.55247803     0.43500
C1405       C  0.89194950  0.34746675  0.96366033    -0.05600
C1406       C  0.85756504  0.31467430  0.93742462    -0.33000
C1407       C  0.83526869  0.26920823  0.94655347     0.36200
C1408       C  0.84839119  0.25583225  0.98161285    -0.06000
C1409       C  0.88203067  0.28522282  0.51312677    -0.32900
C1410       C  0.90444685  0.33445869  0.99923671     0.36100
H1411       H  0.84890754  0.32402444  0.90897900     0.16500
O1412       O  0.80299181  0.23753830  0.91914170    -0.60400
H1413       H  0.89158160  0.27587128  0.54104333     0.16500
O1414       O  0.93754133  0.36241859  0.53012906    -0.60500
H1415       H  0.96211707  0.35935709  0.52144819     0.43500
H1416       H  0.77843032  0.24172998  0.92495223     0.43500
C1417       C  0.72072122  0.10057669  0.98557145    -0.05600
C1418       C  0.69495494  0.10545547  0.50968569    -0.33000
C1419       C  0.64942612  0.08422542  0.00163726     0.36200
C1420       C  0.63190041  0.04633867  0.97148672    -0.06000
C1421       C  0.65887635  0.03515483  0.94918250    -0.32900
C1422       C  0.70295637  0.06252507  0.95522978     0.36100
H1423       H  0.70789084  0.13381090  0.53383141     0.16500
O1424       O  0.62524576  0.09157290  0.52342275    -0.60400
H1425       H  0.64585858  0.00721566  0.92457208     0.16500
O1426       O  0.72830537  0.05350252  0.92931926    -0.60500
H1427       H  0.73479538  0.07352997  0.90624844     0.43500
H1428       H  0.62399385  0.11425908  0.50696710     0.43500
C1429       C  0.76777006  0.63111476  0.99778408     0.03000
C1430       C  0.78607689  0.67823523  0.99584513    -0.13200
C1431       C  0.83035137  0.70650126  0.99394830     0.00500
C1432       C  0.85643166  0.68729029  0.99519919    -0.11700
C1433       C  0.83860153  0.64022102  0.99695657     0.03000
C1434       C  0.79443398  0.61281003  0.99975597    -0.11100
H1435       H  0.76574676  0.69259928  0.99357325     0.08600
H1436       H  0.89044142  0.70867874  0.99262142     0.06100
H1437       H  0.78040903  0.57644101  0.00062665     0.06000
C1438       C  0.78231733  0.63225894  0.25315237     0.03000
C1439       C  0.80795509  0.61351651  0.26038568    -0.13200
C1440       C  0.85095664  0.63591977  0.25004909     0.00500
C1441       C  0.86966662  0.68116958  0.23937915    -0.11700
C1442       C  0.84527516  0.70223805  0.23621782     0.03000
C1443       C  0.80143550  0.67673177  0.24140469    -0.11100
H1444       H  0.79329784  0.57991213  0.27116312     0.08600
H1445       H  0.90280227  0.69959423  0.23188364     0.06100
H1446       H  0.78181129  0.69061396  0.23330388     0.06000
C1447       C  0.69940230  0.84287435  0.32496298     0.03000
C1448       C  0.67842124  0.86734193  0.32033782    -0.13200
C1449       C  0.63382712  0.84474935  0.31689387     0.00500
C1450       C  0.61060619  0.79701873  0.31395794    -0.11700
C1451       C  0.63046225  0.77229110  0.32137865     0.03000
C1452       C  0.67508686  0.79529693  0.32676314    -0.11100
H1453       H  0.69669190  0.90419158  0.32327915     0.08600
H1454       H  0.57617837  0.77919726  0.31076248     0.06100
H1455       H  0.69064120  0.77666521  0.33404817     0.06000
C1456       C  0.73309301  0.86656190  0.07481755     0.03000
C1457       C  0.70725094  0.88580537  0.06996965    -0.13200
C1458       C  0.66264424  0.85902403  0.07056600     0.00500
C1459       C  0.64388307  0.81179617  0.07170467    -0.11700
C1460       C  0.66911582  0.79217024  0.07622478     0.03000
C1461       C  0.71339496  0.81960814  0.07801780    -0.11100
H1462       H  0.72173677  0.92195553  0.06773877     0.08600
H1463       H  0.60959829  0.79056740  0.07169782     0.06100
H1464       H  0.73242049  0.80429060  0.08366202     0.06000
O1465       O  0.57065854  0.98846381  0.36929516    -0.80300
O1466       O  0.89652660  0.94407751  0.40087391    -0.80300
O1467       O  0.94270715  0.89480410  0.42522920    -0.80300
O1468       O  0.96373394  0.46306269  0.32825048    -0.80200
O1469       O  0.92113737  0.92472334  0.47408864    -0.80400
O1470       O  0.53028053  0.51886193  0.32486173    -0.80300
O1471       O  0.90307045  0.98943109  0.35207730    -0.80300
O1472       O  0.51240351  0.92299547  0.37570325    -0.80300
C1473       C  0.54931978  0.94527772  0.36234397     1.09400
C1474       C  0.87977171  0.95408622  0.37073361     1.09300
C1475       C  0.91861645  0.88966884  0.45485231     1.09400
C1476       C  0.99609454  0.98702697  0.31086803     1.09300
O1477       O  0.53804338  0.58165214  0.39814002    -0.80300
O1478       O  0.98765230  0.01670466  0.49348534    -0.80300
O1479       O  0.56668527  0.48004413  0.44810159    -0.80300
O1480       O  0.94464525  0.53775478  0.42231144    -0.80300
O1481       O  0.90688479  0.49284569  0.47068166    -0.80300
O1482       O  0.57648469  0.54823365  0.44361317    -0.80300
O1483       O  0.48887412  0.55693303  0.34852986    -0.80200
O1484       O  0.49815408  0.95738446  0.49485377    -0.80300
Co1485     Co  0.55126310  0.53305930  0.38604718     1.51500
Co1486     Co  0.94605555  0.98347279  0.44621943     1.51700
Co1487     Co  0.50357390  0.93995516  0.43318551     1.51600
Co1488     Co  0.95455925  0.49638519  0.37653458     1.51500
O1489       O  0.99447793  0.98860162  0.41283624    -1.42200
C1490       C  0.52188167  0.58975915  0.36776089     1.09300
C1491       C  0.99422192  0.99422858  0.01392535     1.09400
C1492       C  0.58919285  0.52296111  0.45600607     1.09400
C1493       C  0.91942016  0.52917721  0.45332714     1.09300
O1494       O  0.59376071  0.00014589  0.10206840    -0.80300
O1495       O  0.93100705  0.94666373  0.12679190    -0.80300
O1496       O  0.95831084  0.90359697  0.16990679    -0.80300
O1497       O  0.00887263  0.54263603  0.07562137    -0.80200
O1498       O  0.91070146  0.91401878  0.20422792    -0.80400
O1499       O  0.51379053  0.48243881  0.07848023    -0.80300
O1500       O  0.93362528  0.01086730  0.12090990    -0.80300
O1501       O  0.53816834  0.93913845  0.12424036    -0.80300
C1502       C  0.57444986  0.95782850  0.10650237     1.09400
C1503       C  0.91436631  0.96807031  0.11353474     1.09300
C1504       C  0.92431838  0.88772616  0.19118055     1.09400
C1505       C  0.00336947  0.00579420  0.05961333     1.09300
O1506       O  0.58152438  0.57447166  0.10199540    -0.80300
O1507       O  0.97381997  0.99244466  0.24406371    -0.80300
O1508       O  0.58094966  0.49057268  0.20106416    -0.80300
O1509       O  0.98355555  0.57162425  0.19219440    -0.80300
O1510       O  0.92749586  0.50376962  0.19503286    -0.80300
O1511       O  0.59883982  0.55187290  0.17199943    -0.80300
O1512       O  0.55553589  0.60372171  0.14782627    -0.80200
O1513       O  0.50775022  0.95729555  0.24257496    -0.80300
Co1514     Co  0.55510869  0.51455787  0.12702881     1.51500
Co1515     Co  0.95548107  0.96874479  0.18532733     1.51700
Co1516     Co  0.51904960  0.95466995  0.18116989     1.51600
Co1517     Co  0.99842431  0.55520506  0.13634046     1.51500
O1518       O  0.01077058  0.01239455  0.16664296    -1.42200
C1519       C  0.58202941  0.60893995  0.12041326     1.09300
C1520       C  0.99349360  0.97920260  0.26493290     1.09400
C1521       C  0.60727727  0.53160278  0.19763413     1.09400
C1522       C  0.94613780  0.54672158  0.20388932     1.09300
C1523       C  0.64944825  0.74414268  0.08497460    -0.05600
C1524       C  0.66173147  0.73368087  0.12231592    -0.33000
C1525       C  0.64113606  0.68905248  0.13346164     0.36200
C1526       C  0.60870859  0.65420525  0.10657687    -0.06000
C1527       C  0.59698913  0.66430421  0.06884967    -0.32900
C1528       C  0.61725081  0.70897988  0.05782386     0.36100
H1529       H  0.68619288  0.76048799  0.14370284     0.16500
O1530       O  0.65235504  0.67986362  0.17091330    -0.60400
H1531       H  0.57104051  0.63766603  0.04862784     0.16500
O1532       O  0.60466404  0.71809412  0.02110862    -0.60500
H1533       H  0.62444423  0.71786263  0.99991717     0.43500
H1534       H  0.63445239  0.68415579  0.19203353     0.43500
C1535       C  0.78037167  0.89516809  0.08058052    -0.05600
C1536       C  0.80619619  0.87804896  0.06488373    -0.33000
C1537       C  0.85003298  0.90133414  0.07488894     0.36200
C1538       C  0.86935845  0.94387317  0.09842723    -0.06000
C1539       C  0.84409727  0.96196705  0.11246262    -0.32900
C1540       C  0.80003070  0.93761995  0.10494437     0.36100
H1541       H  0.79223270  0.84574141  0.04585816     0.16500
O1542       O  0.87363742  0.88225699  0.06156562    -0.60400
H1543       H  0.85824196  0.99412719  0.13173490     0.16500
O1544       O  0.77634596  0.95363654  0.12507121    -0.60500
H1545       H  0.78292890  0.98157569  0.11178559     0.43500
H1546       H  0.87097746  0.86199618  0.08337794     0.43500
C1547       C  0.59306119  0.92958159  0.09213132    -0.05600
C1548       C  0.58423306  0.89226033  0.11434370    -0.33000
C1549       C  0.60590844  0.86864490  0.10697505     0.36200
C1550       C  0.63635674  0.88105326  0.07572840    -0.06000
C1551       C  0.64389978  0.91724225  0.05213714    -0.32900
C1552       C  0.62261943  0.94147007  0.06018949     0.36100
H1553       H  0.56216708  0.88289736  0.13949535     0.16500
O1554       O  0.59873346  0.83516793  0.13235839    -0.60400
H1555       H  0.66689590  0.92727959  0.02784480     0.16500
O1556       O  0.63138361  0.97699747  0.03703475    -0.60500
H1557       H  0.61090864  0.96315111  0.01236951     0.43500
H1558       H  0.61895714  0.85101128  0.15703752     0.43500
C1559       C  0.54517708  0.63580805  0.35315372    -0.05600
C1560       C  0.55723264  0.67337869  0.38262437    -0.33000
C1561       C  0.58585193  0.71753884  0.37261183     0.36200
C1562       C  0.60325010  0.72498754  0.33258291    -0.06000
C1563       C  0.59136231  0.68753046  0.30289249    -0.32900
C1564       C  0.56268499  0.64307179  0.31303848     0.36100
H1565       H  0.54511499  0.66832666  0.41397560     0.16500
O1566       O  0.59672623  0.75343973  0.40225435    -0.60400
H1567       H  0.60449631  0.69275329  0.27199567     0.16500
O1568       O  0.55460683  0.60692439  0.28481035    -0.60500
H1569       H  0.52791393  0.59884551  0.26908090     0.43500
H1570       H  0.62080634  0.75633990  0.41934899     0.43500
C1571       C  0.83390131  0.92376382  0.35802694    -0.05600
C1572       C  0.81830144  0.92414157  0.31779527    -0.33000
C1573       C  0.77478795  0.89689557  0.30613743     0.36200
C1574       C  0.74604261  0.86840057  0.33467679    -0.06000
C1575       C  0.76155925  0.86777622  0.37468690    -0.32900
C1576       C  0.80486967  0.89537424  0.38663746     0.36100
H1577       H  0.83980856  0.94587907  0.29539899     0.16500
O1578       O  0.76050197  0.89896370  0.26705430    -0.60400
H1579       H  0.73966721  0.84722694  0.39747723     0.16500
O1580       O  0.81787221  0.89704616  0.42747106    -0.60500
H1581       H  0.81760606  0.86817817  0.42947583     0.43500
H1582       H  0.76274702  0.87575822  0.24833562     0.43500
C1583       C  0.61110278  0.87021359  0.32536444    -0.05600
C1584       C  0.62286183  0.91088160  0.30708318    -0.33000
C1585       C  0.60265324  0.93586559  0.31777927     0.36200
C1586       C  0.56965878  0.91956801  0.34627247    -0.06000
C1587       C  0.55795098  0.87893697  0.36394966    -0.32900
C1588       C  0.57898165  0.85527226  0.35489580     0.36100
H1589       H  0.64802717  0.92353950  0.28500365     0.16500
O1590       O  0.61580310  0.97621323  0.30081660    -0.60400
H1591       H  0.53386941  0.86660247  0.38720001     0.16500
O1592       O  0.56937327  0.81888193  0.37721901    -0.60500
H1593       H  0.58991605  0.83164272  0.40186452     0.43500
H1594       H  0.59350051  0.96943450  0.27901628     0.43500
C1595       C  0.92243326  0.56783038  0.22314029    -0.05600
C1596       C  0.87793159  0.54339005  0.21902265    -0.33000
C1597       C  0.85419647  0.56437802  0.22865890     0.36200
C1598       C  0.87469704  0.61065873  0.24515969    -0.06000
C1599       C  0.91915992  0.63395409  0.25268804    -0.32900
C1600       C  0.94302459  0.61342824  0.24086859     0.36100
H1601       H  0.86127313  0.50840810  0.20536244     0.16500
O1602       O  0.81156165  0.54036323  0.21754136    -0.60400
H1603       H  0.93591969  0.66893401  0.26630828     0.16500
O1604       O  0.98647634  0.63856043  0.24632615    -0.60500
H1605       H  0.99632136  0.65707820  0.22195472     0.43500
H1606       H  0.79852945  0.51659884  0.23749430     0.43500
C1607       C  0.86438401  0.74942626  0.22369970    -0.05600
C1608       C  0.89282144  0.76341212  0.19100129    -0.33000
C1609       C  0.91151766  0.80775777  0.17902228     0.36200
C1610       C  0.90132382  0.83907178  0.19933460    -0.06000
C1611       C  0.87209201  0.82471733  0.23131508    -0.32900
C1612       C  0.85383871  0.78054340  0.24366473     0.36100
H1613       H  0.90066304  0.73986935  0.17452832     0.16500
O1614       O  0.93948050  0.81987372  0.14718988    -0.60400
H1615       H  0.86448421  0.84832636  0.24807193     0.16500
O1616       O  0.82775163  0.76900923  0.27707184    -0.60500
H1617       H  0.80119625  0.76700303  0.26663230     0.43500
H1618       H  0.96686941  0.82662985  0.16055079     0.43500
C1619       C  0.64940177  0.55353988  0.21918657    -0.05600
C1620       C  0.66495443  0.59435398  0.24496951    -0.33000
C1621       C  0.70761651  0.61865135  0.26012303     0.36200
C1622       C  0.73530378  0.60257377  0.24828458    -0.06000
C1623       C  0.71846566  0.56002957  0.22484824    -0.32900
C1624       C  0.67594803  0.53556933  0.21049093     0.36100
H1625       H  0.64432161  0.60786708  0.25252838     0.16500
O1626       O  0.72209226  0.65790703  0.28637034    -0.60400
H1627       H  0.73892532  0.54702637  0.21484812     0.16500
O1628       O  0.66138089  0.49559452  0.18536927    -0.60500
H1629       H  0.66711231  0.50451763  0.15619442     0.43500
H1630       H  0.71931714  0.67955361  0.26958462     0.43500
C1631       C  0.86757980  0.61505061  0.48740443    -0.05600
C1632       C  0.85814582  0.58306456  0.01487325    -0.33000
C1633       C  0.87923346  0.55353934  0.50315063     0.36200
C1634       C  0.90524375  0.56139645  0.46829546    -0.06000
C1635       C  0.91479438  0.59859647  0.44544668    -0.32900
C1636       C  0.89605562  0.62510432  0.45454093     0.36100
H1637       H  0.83760911  0.57532755  0.04125273     0.16500
O1638       O  0.86765122  0.52135899  0.02872470    -0.60400
H1639       H  0.93509702  0.60581878  0.41891928     0.16500
O1640       O  0.90376530  0.65885559  0.42932442    -0.60500
H1641       H  0.88172700  0.64388831  0.40600086     0.43500
H1642       H  0.89135207  0.53422831  0.05037192     0.43500
C1643       C  0.89216862  0.84386739  0.46875031    -0.05600
C1644       C  0.85700541  0.81109422  0.44332669    -0.33000
C1645       C  0.83584404  0.76528637  0.45150006     0.36200
C1646       C  0.85058849  0.75140640  0.48497693    -0.06000
C1647       C  0.88447391  0.78903001  0.01053642    -0.32900
C1648       C  0.90652231  0.83030140  0.50264057     0.36100
H1649       H  0.84705093  0.82067272  0.41586175     0.16500
O1650       O  0.80316651  0.73382010  0.42433841    -0.60400
H1651       H  0.89632549  0.78028659  0.03725945     0.16500
O1652       O  0.94110293  0.86620138  0.02415794    -0.60500
H1653       H  0.96501389  0.86404822  0.01179212     0.43500
H1654       H  0.77858416  0.73769317  0.43108009     0.43500
C1655       C  0.72269740  0.59577553  0.48724464    -0.05600
C1656       C  0.69319970  0.61096449  0.01386861    -0.33000
C1657       C  0.65180208  0.58259211  0.50131846     0.36200
C1658       C  0.63366395  0.54424331  0.47172595    -0.06000
C1659       C  0.66002372  0.53097246  0.45102819    -0.32900
C1660       C  0.70418703  0.55691213  0.45775101     0.36100
H1661       H  0.70579763  0.64001933  0.03723914     0.16500
O1662       O  0.62334211  0.59871373  0.02401693    -0.60400
H1663       H  0.64657457  0.50236084  0.42709815     0.16500
O1664       O  0.72891434  0.54571956  0.43308797    -0.60500
H1665       H  0.73497398  0.56368278  0.40846597     0.43500
H1666       H  0.62413814  0.62212486  0.00702773     0.43500
C1667       C  0.76965637  0.62633953  0.49204765     0.03000
C1668       C  0.78773584  0.67356342  0.49143613    -0.13200
C1669       C  0.83199771  0.70236340  0.49082792     0.00500
C1670       C  0.85841791  0.68355289  0.49194933    -0.11700
C1671       C  0.84087973  0.63638936  0.49246004     0.03000
C1672       C  0.79657154  0.60830550  0.49357326    -0.11100
H1673       H  0.76725869  0.68780839  0.48977494     0.08600
H1674       H  0.89252564  0.70543394  0.49072626     0.06100
H1675       H  0.78285726  0.57191286  0.49379304     0.06000
C1676       C  0.78340754  0.63866750  0.75088841     0.03000
C1677       C  0.81047105  0.62120694  0.75600404    -0.13200
C1678       C  0.85202436  0.64340664  0.74150073     0.00500
C1679       C  0.86845240  0.68764827  0.72897042    -0.11700
C1680       C  0.84339567  0.70806673  0.72915434     0.03000
C1681       C  0.80058654  0.68270343  0.73841952    -0.11100
H1682       H  0.79771341  0.58859062  0.76847189     0.08600
H1683       H  0.90031014  0.70612994  0.71788620     0.06100
H1684       H  0.78021636  0.69635934  0.73275971     0.06000
C1685       C  0.69820867  0.84610642  0.82451909     0.03000
C1686       C  0.67703560  0.87050793  0.82120186    -0.13200
C1687       C  0.63246674  0.84776142  0.81696867     0.00500
C1688       C  0.60955655  0.80001853  0.81241451    -0.11700
C1689       C  0.62943492  0.77539346  0.81993385     0.03000
C1690       C  0.67401338  0.79844617  0.82566266    -0.11100
H1691       H  0.69524538  0.90733498  0.82524050     0.08600
H1692       H  0.57525339  0.78181551  0.80768074     0.06100
H1693       H  0.68959006  0.77969965  0.83243762     0.06000
C1694       C  0.73784196  0.87037444  0.57918931     0.03000
C1695       C  0.71162116  0.88925519  0.57518771    -0.13200
C1696       C  0.66692673  0.86193848  0.57465443     0.00500
C1697       C  0.64870404  0.81454825  0.57432575    -0.11700
C1698       C  0.67423717  0.79517637  0.57877687     0.03000
C1699       C  0.71853392  0.82326947  0.58147455    -0.11100
H1700       H  0.72599866  0.92547817  0.57376147     0.08600
H1701       H  0.61448687  0.79268589  0.57251005     0.06100
H1702       H  0.73793636  0.80823970  0.58638736     0.06000
O1703       O  0.57057796  0.99204811  0.87018990    -0.80300
O1704       O  0.89575121  0.94783089  0.89813927    -0.80300
O1705       O  0.94130401  0.89825767  0.92168213    -0.80300
O1706       O  0.96361393  0.47076160  0.82855625    -0.80200
O1707       O  0.91859296  0.92678263  0.97074193    -0.80400
O1708       O  0.53032330  0.52329199  0.82556772    -0.80300
O1709       O  0.90214033  0.99336023  0.84967286    -0.80300
O1710       O  0.51158030  0.92689636  0.87448436    -0.80300
C1711       C  0.54884789  0.94905755  0.86201889     1.09400
C1712       C  0.87895691  0.95776299  0.86805882     1.09300
C1713       C  0.91682875  0.89222104  0.95118265     1.09400
C1714       C  0.99609304  0.99208411  0.80990511     1.09300
O1715       O  0.53752252  0.58576196  0.89879971    -0.80300
O1716       O  0.98429949  0.01787827  0.99317921    -0.80300
O1717       O  0.56544339  0.48356108  0.94864930    -0.80300
O1718       O  0.94300284  0.54280087  0.92385248    -0.80300
O1719       O  0.90627535  0.49735577  0.97226411    -0.80300
O1720       O  0.57531279  0.55184512  0.94462752    -0.80300
O1721       O  0.48836068  0.56103097  0.84911924    -0.80200
O1722       O  0.49585590  0.95801806  0.99389014    -0.80300
Co1723     Co  0.55056710  0.53696168  0.88690045     1.51500
Co1724     Co  0.94407770  0.98657467  0.94453753     1.51700
Co1725     Co  0.50217033  0.94234133  0.93218788     1.51600
Co1726     Co  0.95381300  0.50280167  0.87732612     1.51500
O1727       O  0.99327238  0.99325690  0.91167037    -1.42200
C1728       C  0.52127528  0.59385816  0.86845584     1.09300
C1729       C  0.99840850  0.99432305  0.51501130     1.09400
C1730       C  0.58786599  0.52648682  0.95712122     1.09400
C1731       C  0.91768133  0.53343105  0.95483996     1.09300
O1732       O  0.59574214  0.00118257  0.60368422    -0.80300
O1733       O  0.93674865  0.95299301  0.62477223    -0.80300
O1734       O  0.95983445  0.90825317  0.66914664    -0.80300
O1735       O  0.00988393  0.54309660  0.57395812    -0.80200
O1736       O  0.91268867  0.92127497  0.70176753    -0.80400
O1737       O  0.51546033  0.48202424  0.57880158    -0.80300
O1738       O  0.93992974  0.01707196  0.61742721    -0.80300
O1739       O  0.53984288  0.94005141  0.62527361    -0.80300
C1740       C  0.57628980  0.95882540  0.60772238     1.09400
C1741       C  0.92028054  0.97418372  0.61082562     1.09300
C1742       C  0.92469922  0.89367767  0.68850478     1.09400
C1743       C  0.01000626  0.00899033  0.56011158     1.09300
O1744       O  0.58440855  0.57445003  0.59997889    -0.80300
O1745       O  0.97629569  0.99867817  0.74263227    -0.80300
O1746       O  0.58212611  0.49276454  0.70255029    -0.80300
O1747       O  0.98571404  0.57698941  0.68882985    -0.80300
O1748       O  0.92907172  0.51018131  0.69367920    -0.80300
O1749       O  0.60092889  0.55309684  0.67126461    -0.80300
O1750       O  0.55977487  0.60561567  0.64520404    -0.80200
O1751       O  0.50935720  0.96060876  0.74320911    -0.80300
Co1752     Co  0.55708650  0.51523278  0.62680198     1.51500
Co1753     Co  0.95926288  0.97497114  0.68388997     1.51700
Co1754     Co  0.52059096  0.95651743  0.68188579     1.51600
Co1755     Co  0.99979144  0.55829344  0.63393623     1.51500
O1756       O  0.01524109  0.01757083  0.66675424    -1.42200
C1757       C  0.58593752  0.60973454  0.61777801     1.09300
C1758       C  0.99424309  0.98407038  0.76421743     1.09400
C1759       C  0.60872556  0.53349689  0.69814559     1.09400
C1760       C  0.94804101  0.55341145  0.70018734     1.09300
C1761       C  0.65471331  0.74631953  0.58535578    -0.05600
C1762       C  0.66838395  0.73385609  0.62053465    -0.33000
C1763       C  0.64780471  0.68857973  0.63009656     0.36200
C1764       C  0.61375276  0.65493351  0.60384379    -0.06000
C1765       C  0.60099168  0.66687383  0.56788728    -0.32900
C1766       C  0.62126539  0.71220283  0.55844340     0.36100
H1767       H  0.69383534  0.75960324  0.64178527     0.16500
O1768       O  0.66047465  0.67762543  0.66564866    -0.60400
H1769       H  0.57400847  0.64122846  0.54807634     0.16500
O1770       O  0.60735297  0.72298140  0.52361617    -0.60500
H1771       H  0.62215183  0.71755381  0.49979354     0.43500
H1772       H  0.64535603  0.68355729  0.68888904     0.43500
C1773       C  0.78524406  0.89943097  0.58352407    -0.05600
C1774       C  0.81086361  0.88279088  0.56614189    -0.33000
C1775       C  0.85507545  0.90684476  0.57401084     0.36200
C1776       C  0.87487828  0.94969686  0.59701976    -0.06000
C1777       C  0.84975401  0.96734182  0.61261836    -0.32900
C1778       C  0.80545119  0.94229281  0.60725705     0.36100
H1779       H  0.79653932  0.85031715  0.54736668     0.16500
O1780       O  0.87858505  0.88816855  0.55920544    -0.60400
H1781       H  0.86439404  0.99987248  0.63125425     0.16500
O1782       O  0.78231714  0.95817592  0.62875672    -0.60500
H1783       H  0.78826290  0.98609331  0.61579927     0.43500
H1784       H  0.87648825  0.86754152  0.58040679     0.43500
C1785       C  0.59527810  0.93098172  0.59306410    -0.05600
C1786       C  0.58235750  0.89003839  0.61080204    -0.33000
C1787       C  0.60472982  0.86698825  0.60461822     0.36200
C1788       C  0.63986991  0.88340135  0.57836891    -0.06000
C1789       C  0.65117030  0.92308503  0.55859823    -0.32900
C1790       C  0.62969091  0.94706405  0.56619258     0.36100
H1791       H  0.55650362  0.87729569  0.63212552     0.16500
O1792       O  0.59346634  0.83017358  0.62686990    -0.60400
H1793       H  0.67746812  0.93635320  0.53785157     0.16500
O1794       O  0.64347089  0.98683812  0.54801846    -0.60500
H1795       H  0.62572599  0.97780249  0.52156459     0.43500
H1796       H  0.61173497  0.84261727  0.65316655     0.43500
C1797       C  0.54442631  0.63990250  0.85379248    -0.05600
C1798       C  0.55976424  0.67766346  0.88376158    -0.33000
C1799       C  0.58820653  0.72149401  0.87289306     0.36200
C1800       C  0.60222971  0.72834686  0.83153780    -0.06000
C1801       C  0.58662075  0.69081970  0.80120797    -0.32900
C1802       C  0.55806423  0.64669410  0.81213411     0.36100
H1803       H  0.55027925  0.67299878  0.91604319     0.16500
O1804       O  0.60188520  0.75770105  0.90286566    -0.60400
H1805       H  0.59689269  0.69572295  0.76920129     0.16500
O1806       O  0.54663592  0.61034673  0.78284222    -0.60500
H1807       H  0.51609043  0.59784775  0.77556904     0.43500
H1808       H  0.62768055  0.76086867  0.91677975     0.43500
C1809       C  0.83311479  0.92701833  0.85536505    -0.05600
C1810       C  0.81630243  0.93098132  0.81729964    -0.33000
C1811       C  0.77266802  0.90388892  0.80625102     0.36200
C1812       C  0.74501734  0.87169453  0.83306977    -0.06000
C1813       C  0.76175811  0.86730681  0.87073331    -0.32900
C1814       C  0.80516927  0.89486000  0.88229353     0.36100
H1815       H  0.83686576  0.95566526  0.79631535     0.16500
O1816       O  0.75713240  0.90991871  0.76966862    -0.60400
H1817       H  0.74069082  0.84392168  0.89239220     0.16500
O1818       O  0.81926967  0.89297457  0.92161271    -0.60500
H1819       H  0.81171394  0.86090159  0.92311486     0.43500
H1820       H  0.76002827  0.88969734  0.74753897     0.43500
C1821       C  0.60947313  0.87306375  0.82470728    -0.05600
C1822       C  0.62465875  0.91626573  0.81017448    -0.33000
C1823       C  0.60492552  0.94163062  0.82090736     0.36200
C1824       C  0.56870003  0.92314702  0.84527569    -0.06000
C1825       C  0.55312196  0.87974026  0.85865590    -0.32900
C1826       C  0.57378523  0.85564345  0.85007604     0.36100
H1827       H  0.65229270  0.93076861  0.79116592     0.16500
O1828       O  0.62181071  0.98454347  0.80825782    -0.60400
H1829       H  0.52623528  0.86534417  0.87868385     0.16500
O1830       O  0.56020057  0.81639971  0.86925971    -0.60500
H1831       H  0.57758527  0.82594065  0.89603714     0.43500
H1832       H  0.60430106  0.98089581  0.78286636     0.43500
C1833       C  0.92471022  0.57622844  0.71617218    -0.05600
C1834       C  0.88030453  0.55063177  0.71700283    -0.33000
C1835       C  0.85625461  0.57161928  0.72462196     0.36200
C1836       C  0.87665830  0.61922448  0.73568513    -0.06000
C1837       C  0.92144089  0.64437156  0.73737285    -0.32900
C1838       C  0.94515437  0.62383191  0.72560894     0.36100
H1839       H  0.86361712  0.51422712  0.70873578     0.16500
O1840       O  0.81308968  0.54573053  0.71671997    -0.60400
H1841       H  0.93854059  0.68063453  0.74622777     0.16500
O1842       O  0.98825739  0.65099085  0.72269787    -0.60500
H1843       H  0.99206834  0.66214072  0.69433281     0.43500
H1844       H  0.80232242  0.52390996  0.73858588     0.43500
C1845       C  0.86090454  0.75476426  0.71660394    -0.05600
C1846       C  0.88376901  0.76722107  0.67989941    -0.33000
C1847       C  0.90293578  0.81192771  0.66898584     0.36200
C1848       C  0.89882257  0.84490527  0.69465159    -0.06000
C1849       C  0.87420756  0.83189146  0.73023342    -0.32900
C1850       C  0.85549066  0.78730109  0.74142770     0.36100
H1851       H  0.88732302  0.74234292  0.65989729     0.16500
O1852       O  0.92555531  0.82298721  0.63314823    -0.60400
H1853       H  0.87139619  0.85692102  0.75082331     0.16500
O1854       O  0.83472148  0.77672060  0.77836783    -0.60500
H1855       H  0.80699909  0.77447084  0.77248820     0.43500
H1856       H  0.95335425  0.82626282  0.64087143     0.43500
C1857       C  0.65046321  0.55600295  0.72029495    -0.05600
C1858       C  0.66544835  0.59738394  0.74494664    -0.33000
C1859       C  0.70819785  0.62297851  0.75960553     0.36200
C1860       C  0.73651550  0.60761761  0.74820507    -0.06000
C1861       C  0.72010027  0.56426042  0.72636822    -0.32900
C1862       C  0.67749927  0.53853174  0.71259196     0.36100
H1863       H  0.64434634  0.61046049  0.75173470     0.16500
O1864       O  0.72217979  0.66289623  0.78472059    -0.60400
H1865       H  0.74088819  0.55159310  0.71670457     0.16500
O1866       O  0.66339926  0.49794839  0.68862537    -0.60500
H1867       H  0.66854228  0.50584940  0.65909010     0.43500
H1868       H  0.71715862  0.68295160  0.76776412     0.43500
C1869       C  0.86451577  0.61806601  0.99030610    -0.05600
C1870       C  0.86060025  0.58006791  0.51225083    -0.33000
C1871       C  0.87654575  0.55642910  0.00484349     0.36200
C1872       C  0.90218035  0.56455983  0.96965074    -0.06000
C1873       C  0.91033302  0.60110359  0.94642489    -0.32900
C1874       C  0.89146308  0.62736177  0.95615231     0.36100
H1875       H  0.83932219  0.57218791  0.53801761     0.16500
O1876       O  0.87015092  0.51878965  0.52753230    -0.60400
H1877       H  0.92977109  0.60809980  0.91923213     0.16500
O1878       O  0.89757544  0.66017881  0.93038780    -0.60500
H1879       H  0.87420843  0.64455296  0.90838246     0.43500
H1880       H  0.89366141  0.53196746  0.54940431     0.43500
C1881       C  0.89131719  0.84625238  0.96529072    -0.05600
C1882       C  0.85646554  0.81231295  0.94020371    -0.33000
C1883       C  0.83493029  0.76716668  0.95057368     0.36200
C1884       C  0.84925485  0.75500478  0.98567446    -0.06000
C1885       C  0.88560930  0.78444760  0.51073765    -0.32900
C1886       C  0.90555919  0.83425110  0.00043352     0.36100
H1887       H  0.84675366  0.82048259  0.91167961     0.16500
O1888       O  0.80202495  0.73456244  0.92431456    -0.60400
H1889       H  0.89757574  0.77444924  0.53641944     0.16500
O1890       O  0.94217811  0.86128183  0.52678942    -0.60500
H1891       H  0.96615815  0.86053028  0.51293988     0.43500
H1892       H  0.77732075  0.73819102  0.93105067     0.43500
C1893       C  0.72089614  0.60039321  0.99188436    -0.05600
C1894       C  0.69588793  0.60744916  0.50963712    -0.33000
C1895       C  0.64924737  0.58561547  0.00438283     0.36200
C1896       C  0.63212260  0.54794760  0.97395320    -0.06000
C1897       C  0.65947614  0.53605961  0.95340046    -0.32900
C1898       C  0.70347936  0.56244802  0.96135112     0.36100
H1899       H  0.70927084  0.63696851  0.53250900     0.16500
O1900       O  0.62672247  0.59652914  0.52156392    -0.60400
H1901       H  0.64696313  0.50824243  0.92869117     0.16500
O1902       O  0.72923519  0.55268582  0.93685360    -0.60500
H1903       H  0.73724660  0.57299910  0.91383941     0.43500
H1904       H  0.62814545  0.62062816  0.50513197     0.43500
loop_ 
_geom_bond_atom_site_label_1 
_geom_bond_atom_site_label_2 
_geom_bond_distance 
_geom_bond_site_symmetry_2 
_ccdc_geom_bond_type 
C1            C2   1.407       .  A
C1            C6   1.403       .  A
C1          C465   1.485       .  S
C2            C3   1.403       .  A
C2            H7   1.083       .  S
C3            C4   1.406       .  A
C3          C456   1.485       .  S
C4            C5   1.404       .  A
C4            H8   1.084       .  S
C5            C6   1.401       .  A
C5          C441   1.482       .  S
C6            H9   1.083       .  S
C10          C11   1.404       .  A
C10          C15   1.400       .  A
C10         C194   1.484       .  S
C11          C12   1.407       .  A
C11          H16   1.081       .  S
C12          C13   1.414       .  A
C12         C170   1.500       .  S
C13          C14   1.407       .  A
C13          H17   1.082       .  S
C14          C15   1.397       .  A
C14         C179   1.487       .  S
C15          H18   1.082       .  S
C19          C20   1.409       .  A
C19          C24   1.412       .  A
C19         C146   1.490       .  S
C20          C21   1.408       .  A
C20          H25   1.084       .  S
C21          C22   1.405       .  A
C21         C155   1.493       .  S
C22          C23   1.397       .  A
C22          H26   1.084       .  S
C23          C24   1.408       .  A
C23         C134   1.483       .  S
C24          H27   1.084       .  S
C28          C29   1.412       .  A
C28          C33   1.405       .  A
C28         C107   1.493       .  S
C29          C30   1.409       .  A
C29          H34   1.081       .  S
C30          C31   1.405       .  A
C30         C122   1.496       .  S
C31          C32   1.402       .  A
C31          H35   1.083       .  S
C32          C33   1.399       .  A
C32          C95   1.477       .  S
C33          H36   1.084       .  S
O37          C45   1.276       .  A
O37        Co533   2.038       .  S
O38          C46   1.295       .  A
O38         Co58   2.099       .  S
O39          C47   1.252       .  A
O39       Co1011   1.970       .  S
O40         C524   1.269       .  A
O40         Co60   1.969       .  S
O41          C47   1.263       .  A
O41         Co58   2.018       .  S
O42        C1476   1.276   1_445  A
O42         Co57   2.024       .  S
O43          C46   1.271       .  A
O43        Co536   1.912       .  S
O44          C45   1.260       .  A
O44         Co59   1.952       .  S
C45         C158   1.480       .  S
C46         C143   1.496       .  S
C47         C215   1.469       .  S
C48          C92   1.459       .  S
C48         O516   1.269       .  A
C48        O1470   1.277       .  A
O49          C62   1.255       .  A
O49         Co57   1.967       .  S
O50         C301   1.266       .  A
O50         Co58   1.962       .  S
O51          C64   1.269   1_565  A
O51        Co535   2.015       .  S
O52          C65   1.295       .  A
O52         Co60   2.100   1_545  S
O53          C65   1.265   1_565  A
O53        Co534   1.889       .  S
O54          C64   1.257       .  A
O54         Co57   1.960       .  S
O55          C62   1.268   1_655  A
O55       Co1012   2.031   1_545  S
O56        C1253   1.281       .  A
O56         Co59   2.042   1_655  S
Co57        O513   2.033   1_545  S
Co57       O1489   2.023   1_445  S
Co58        O529   1.885       .  S
Co58         O61   2.003       .  S
Co59        O991   1.968   1_455  S
Co59        O527   2.024       .  S
Co59       O1013   2.024   1_455  S
Co60        O519   1.905       .  S
Co60       O1007   2.032   1_565  S
Co60        O537   2.012       .  S
O61       Co1485   2.024       .  S
O61       Co1011   2.021       .  S
O61        Co536   2.015       .  S
C62         C131   1.483       .  S
C63          C77   1.469       .  S
C63         O288   1.268   1_554  A
C63        O1246   1.279   1_554  A
C64         C230   1.463       .  S
C65         C206   1.482       .  S
O66          C74   1.272       .  A
O66        Co562   1.908       .  S
O67          C75   1.260       .  A
O67         Co87   1.987       .  S
O68          C76   1.295       .  A
O68       Co1040   2.068       .  S
O69         C553   1.271       .  A
O69         Co89   2.025       .  S
O70          C76   1.273       .  A
O70         Co87   1.897       .  S
O71        C1505   1.260   1_565  A
O71         Co86   1.982   1_565  S
O72          C75   1.265       .  A
O72        Co565   2.002       .  S
O73          C74   1.298       .  A
O73         Co88   2.072       .  S
C74         C119   1.486       .  S
C75         C110   1.475       .  S
C76         C182   1.481       .  S
C77         O545   1.269       .  A
C77        O1499   1.260       .  A
O78          C91   1.267       .  A
O78         Co86   2.011       .  S
O79          C92   1.242       .  A
O79         Co87   1.954       .  S
O80          C93   1.251   1_565  A
O80        Co564   1.984       .  S
O81          C94   1.267       .  A
O81         Co89   1.980       .  S
O82          C94   1.275       .  A
O82        Co563   2.015   1_545  S
O83          C93   1.246       .  A
O83         Co86   1.967       .  S
O84          C91   1.260       .  A
O84       Co1041   1.972   1_455  S
O85        C1044   1.253   1_455  A
O85         Co88   2.010       .  S
Co86        O542   1.905   1_545  S
Co86       O1518   1.936       .  S
Co87        O558   2.021       .  S
Co87         O90   1.934       .  S
Co88       O1020   2.067   1_455  S
Co88        O556   1.990       .  S
Co88       O1042   2.251       .  S
Co89        O548   2.001       .  S
Co89       O1036   1.970       .  S
Co89        O566   2.077       .  S
O90       Co1514   1.932       .  S
O90       Co1040   2.247       .  S
O90        Co565   2.078       .  S
C91          C98   1.463       .  S
C92        O1037   1.252       .  A
C93         C191   1.461       .  S
C94         C167   1.485       .  S
C95          C96   1.406       .  A
C95         C100   1.407       .  A
C96          C97   1.399       .  A
C96         H101   1.084       .  S
C97          C98   1.403       .  A
C97         O102   1.372       .  S
C98          C99   1.402       .  A
C99         C100   1.398       .  A
C99         H103   1.084       .  S
C100        O104   1.372       .  S
O102        H106   0.992       .  S
O104        H105   0.991   1_554  S
C107        C108   1.412       .  A
C107        C112   1.412       .  A
C108        C109   1.404       .  A
C108        H113   1.083       .  S
C109        C110   1.403       .  A
C109        O114   1.369       .  S
C110        C111   1.403       .  A
C111        C112   1.396       .  A
C111        H115   1.083       .  S
C112        O116   1.373       .  S
O114        H118   0.992       .  S
O116        H117   0.992       .  S
C119        C120   1.403       .  A
C119        C124   1.411       .  A
C120        C121   1.398       .  A
C120        H125   1.084       .  S
C121        C122   1.415       .  A
C121        O126   1.372       .  S
C122        C123   1.408       .  A
C123        C124   1.406       .  A
C123        H127   1.083       .  S
C124        O128   1.370       .  S
O126        H130   0.991       .  S
O128        H129   0.992       .  S
C131        C132   1.403       .  A
C131        C136   1.415       .  A
C132        C133   1.399       .  A
C132        H137   1.084       .  S
C133        C134   1.408       .  A
C133        O138   1.372       .  S
C134        C135   1.405       .  A
C135        C136   1.409       .  A
C135        H139   1.083       .  S
C136        O140   1.372       .  S
O138        H142   0.992       .  S
O140        H141   0.989       .  S
C143        C144   1.408       .  A
C143        C148   1.416       .  A
C144        C145   1.407       .  A
C144        H149   1.084       .  S
C145        C146   1.410       .  A
C145        O150   1.371       .  S
C146        C147   1.402       .  A
C147        C148   1.405       .  A
C147        H151   1.084       .  S
C148        O152   1.373       .  S
O150        H154   0.992       .  S
O152        H153   0.989       .  S
C155        C156   1.411       .  A
C155        C160   1.414       .  A
C156        C157   1.409       .  A
C156        H161   1.083       .  S
C157        C158   1.410       .  A
C157        O162   1.371       .  S
C158        C159   1.401       .  A
C159        C160   1.389       .  A
C159        H163   1.084       .  S
C160        O164   1.372       .  S
O162        H166   0.990       .  S
O164        H165   0.992       .  S
C167        C168   1.402       .  A
C167        C172   1.412       .  A
C168        C169   1.399       .  A
C168        H173   1.083       .  S
C169        C170   1.419       .  A
C169        O174   1.372       .  S
C170        C171   1.407       .  A
C171        C172   1.401       .  A
C171        H175   1.083       .  S
C172        O176   1.371       .  S
O174        H178   0.992       .  S
O176        H177   0.992       .  S
C179        C180   1.404       .  A
C179        C184   1.412       .  A
C180        C181   1.402       .  A
C180        H185   1.083       .  S
C181        C182   1.413       .  A
C181        O186   1.372       .  S
C182        C183   1.403       .  A
C183        C184   1.399       .  A
C183        H187   1.084       .  S
C184        O188   1.373       .  S
O186        H190   0.993       .  S
O188        H189   0.992       .  S
C191        C192   1.400       .  A
C191        C196   1.403       .  A
C192        C193   1.404       .  A
C192        H197   1.084       .  S
C193        C194   1.414       .  A
C193        O198   1.374       .  S
C194        C195   1.406       .  A
C195        C196   1.391       .  A
C195        H199   1.082       .  S
C196        O200   1.373   1_545  S
O198        H202   0.992       .  S
O200        H201   0.992   1_565  S
C203        C208   1.411       .  A
C203        C442   1.405       .  A
C203        C243   1.485       .  S
C204        C441   1.405   1_554  A
C204        C443   1.401       .  A
C204        H209   1.084       .  S
C205        C206   1.412       .  A
C205        C442   1.397       .  A
C205        O448   1.371       .  S
C206        C207   1.406       .  A
C207        C208   1.399       .  A
C207        H211   1.084       .  S
C208        O212   1.372       .  S
O210        C443   1.372       .  S
O210        H214   0.991       .  S
O212        H213   0.992       .  S
C215        C216   1.401       .  A
C215        C220   1.408       .  A
C216        C217   1.401       .  A
C216        H221   1.083       .  S
C217        C218   1.410       .  A
C217        O222   1.372       .  S
C218        C457   1.403       .  A
C218        C241   1.480       .  S
C219        C456   1.404   1_554  A
C219        C458   1.398   1_554  A
C219        H223   1.084       .  S
C220        C457   1.400       .  A
C220        O462   1.372       .  S
O222        H226   0.992       .  S
O224        C458   1.372   1_554  S
O224        H225   0.992       .  S
C227        C232   1.413       .  A
C227        C466   1.404       .  A
C227        C239   1.480       .  S
C228        C465   1.405   1_554  A
C228        C467   1.399       .  A
C228        H233   1.083       .  S
C229        C230   1.403       .  A
C229        C466   1.398       .  A
C229        O472   1.368       .  S
C230        C231   1.399       .  A
C231        C232   1.394       .  A
C231        H235   1.084       .  S
C232        O236   1.372       .  S
O234        C467   1.369       .  S
O234        H238   0.992       .  S
O236        H237   0.992       .  S
C239        C240   1.404       .  A
C239        C244   1.399       .  A
C240        C241   1.403       .  A
C240        H245   1.084       .  S
C241        C242   1.405       .  A
C242        C243   1.405       .  A
C242        H246   1.083       .  S
C243        C244   1.402       .  A
C244        H247   1.083       .  S
C248        C249   1.406       .  A
C248        C253   1.404       .  A
C248        C432   1.490       .  S
C249        C250   1.408       .  A
C249        H254   1.080       .  S
C250        C251   1.413       .  A
C250        C408   1.503       .  S
C251        C252   1.405       .  A
C251        H255   1.081       .  S
C252        C253   1.397       .  A
C252        C417   1.486       .  S
C253        H256   1.081       .  S
C257        C258   1.407       .  A
C257        C262   1.412       .  A
C257        C384   1.489       .  S
C258        C259   1.408       .  A
C258        H263   1.083       .  S
C259        C260   1.410       .  A
C259        C393   1.501       .  S
C260        C261   1.399       .  A
C260        H264   1.083       .  S
C261        C262   1.409       .  A
C261        C372   1.488       .  S
C262        H265   1.084       .  S
C266        C267   1.411       .  A
C266        C271   1.405       .  A
C266        C345   1.492       .  S
C267        C268   1.410       .  A
C267        H272   1.082       .  S
C268        C269   1.407       .  A
C268        C360   1.496       .  S
C269        C270   1.402       .  A
C269        H273   1.083       .  S
C270        C271   1.398       .  A
C270        C333   1.479       .  S
C271        H274   1.084       .  S
O275        C283   1.276       .  A
O275       Co771   2.041       .  S
O276        C284   1.296       .  A
O276       Co296   2.101       .  S
O277        C285   1.252       .  A
O277      Co1249   1.970       .  S
O278        C762   1.269       .  A
O278       Co298   1.966   1_565  S
O279        C285   1.262       .  A
O279       Co296   2.017       .  S
O280       C1714   1.275   1_445  A
O280       Co295   2.020       .  S
O281        C284   1.271       .  A
O281       Co774   1.911       .  S
O282        C283   1.262       .  A
O282       Co297   1.956       .  S
C283        C396   1.486       .  S
C284        C381   1.494       .  S
C285        C453   1.468       .  S
C286        C330   1.462       .  S
C286        O754   1.270       .  A
C286       O1708   1.276       .  A
O287        C300   1.256       .  A
O287       Co295   1.968       .  S
O288       Co296   1.965       .  S
O289        C302   1.272   1_565  A
O289       Co773   2.025       .  S
O290        C303   1.296       .  A
O290       Co298   2.098       .  S
O291        C303   1.266   1_565  A
O291       Co772   1.889       .  S
O292        C302   1.258       .  A
O292       Co295   1.959       .  S
O293        C300   1.269   1_655  A
O293      Co1250   2.036       .  S
O294       C1015   1.282   1_556  A
O294       Co297   2.039   1_655  S
Co295       O751   2.031   1_545  S
Co295      O1727   2.028   1_445  S
Co296       O767   1.881       .  S
Co296       O299   2.003       .  S
Co297      O1229   1.971   1_455  S
Co297       O765   2.024       .  S
Co297      O1251   2.020   1_455  S
Co298       O757   1.907   1_545  S
Co298      O1245   2.040       .  S
Co298       O775   2.012   1_545  S
O299      Co1723   2.027       .  S
O299      Co1249   2.022       .  S
O299       Co774   2.015       .  S
C300        C369   1.489       .  S
C301        C315   1.472       .  S
C301       O1008   1.281       .  A
C302        C468   1.470       .  S
C303        C444   1.480       .  S
O304        C312   1.270       .  A
O304       Co800   1.900       .  S
O305        C313   1.261       .  A
O305       Co325   1.990       .  S
O306        C314   1.296       .  A
O306      Co1278   2.070       .  S
O307        C791   1.271       .  A
O307       Co327   2.026       .  S
O308        C314   1.273       .  A
O308       Co325   1.897       .  S
O309       C1743   1.258   1_565  A
O309       Co324   1.984   1_565  S
O310        C313   1.264       .  A
O310       Co803   2.002       .  S
O311        C312   1.299       .  A
O311       Co326   2.078       .  S
C312        C357   1.485       .  S
C313        C348   1.477       .  S
C314        C420   1.480       .  S
C315        O783   1.272       .  A
C315       O1737   1.259       .  A
O316        C329   1.269       .  A
O316       Co324   2.020       .  S
O317        C330   1.241       .  A
O317       Co325   1.954       .  S
O318        C331   1.252   1_565  A
O318       Co802   1.989       .  S
O319        C332   1.265       .  A
O319       Co327   1.974       .  S
O320        C332   1.277       .  A
O320       Co801   2.023   1_545  S
O321        C331   1.248       .  A
O321       Co324   1.966       .  S
O322        C329   1.257       .  A
O322      Co1279   1.970       .  S
O323       C1282   1.253   1_455  A
O323       Co326   2.007       .  S
Co324       O780   1.899       .  S
Co324      O1756   1.926       .  S
Co325       O796   2.012       .  S
Co325       O328   1.932       .  S
Co326      O1258   2.066   1_455  S
Co326       O794   1.995       .  S
Co326      O1280   2.248       .  S
Co327       O786   2.000       .  S
Co327      O1274   1.967       .  S
Co327       O804   2.079       .  S
O328      Co1752   1.933       .  S
O328      Co1278   2.247       .  S
O328       Co803   2.079       .  S
C329        C336   1.469       .  S
C330       O1275   1.252       .  A
C331        C429   1.464       .  S
C332        C405   1.488       .  S
C333        C334   1.405       .  A
C333        C338   1.406       .  A
C334        C335   1.401       .  A
C334        H339   1.084       .  S
C335        C336   1.406       .  A
C335        O340   1.372       .  S
C336        C337   1.403       .  A
C337        C338   1.400       .  A
C337        H341   1.084       .  S
C338        O342   1.372       .  S
O340        H344   0.992       .  S
O342        H343   0.992       .  S
C345        C346   1.411       .  A
C345        C350   1.411       .  A
C346        C347   1.403       .  A
C346        H351   1.083       .  S
C347        C348   1.401       .  A
C347        O352   1.367       .  S
C348        C349   1.404       .  A
C349        C350   1.398       .  A
C349        H353   1.081       .  S
C350        O354   1.373       .  S
O352        H356   0.992       .  S
O354        H355   0.992       .  S
C357        C358   1.402       .  A
C357        C362   1.410       .  A
C358        C359   1.399       .  A
C358        H363   1.084       .  S
C359        C360   1.415       .  A
C359        O364   1.372       .  S
C360        C361   1.407       .  A
C361        C362   1.404       .  A
C361        H365   1.083       .  S
C362        O366   1.369       .  S
O364        H368   0.992       .  S
O366        H367   0.991       .  S
C369        C370   1.404       .  A
C369        C374   1.416       .  A
C370        C371   1.400       .  A
C370        H375   1.084       .  S
C371        C372   1.408       .  A
C371        O376   1.372       .  S
C372        C373   1.406       .  A
C373        C374   1.411       .  A
C373        H377   1.084       .  S
C374        O378   1.372       .  S
O376        H380   0.991       .  S
O378        H379   0.990       .  S
C381        C382   1.408       .  A
C381        C386   1.416       .  A
C382        C383   1.407       .  A
C382        H387   1.084       .  S
C383        C384   1.411       .  A
C383        O388   1.372       .  S
C384        C385   1.401       .  A
C385        C386   1.405       .  A
C385        H389   1.084       .  S
C386        O390   1.374       .  S
O388        H392   0.992       .  S
O390        H391   0.990       .  S
C393        C394   1.414       .  A
C393        C398   1.416       .  A
C394        C395   1.411       .  A
C394        H399   1.083       .  S
C395        C396   1.411       .  A
C395        O400   1.371       .  S
C396        C397   1.402       .  A
C397        C398   1.389       .  A
C397        H401   1.084       .  S
C398        O402   1.372       .  S
O400        H404   0.991       .  S
O402        H403   0.992       .  S
C405        C406   1.402       .  A
C405        C410   1.414       .  A
C406        C407   1.401       .  A
C406        H411   1.083       .  S
C407        C408   1.420       .  A
C407        O412   1.372       .  S
C408        C409   1.408       .  A
C409        C410   1.400       .  A
C409        H413   1.082       .  S
C410        O414   1.372       .  S
O412        H416   0.993       .  S
O414        H415   0.992       .  S
C417        C418   1.404       .  A
C417        C422   1.411       .  A
C418        C419   1.401       .  A
C418        H423   1.083       .  S
C419        C420   1.412       .  A
C419        O424   1.372       .  S
C420        C421   1.404       .  A
C421        C422   1.400       .  A
C421        H425   1.084       .  S
C422        O426   1.373       .  S
O424        H428   0.992       .  S
O426        H427   0.992       .  S
C429        C430   1.399       .  A
C429        C434   1.405       .  A
C430        C431   1.402       .  A
C430        H435   1.084       .  S
C431        C432   1.414       .  A
C431        O436   1.374       .  S
C432        C433   1.409       .  A
C433        C434   1.394       .  A
C433        H437   1.082       .  S
C434        O438   1.373   1_545  S
O436        H440   0.993       .  S
O438        H439   0.992       .  S
C441        C446   1.409       .  A
C442        H447   1.084       .  S
C443        C444   1.412   1_554  A
C444        C445   1.405       .  A
C445        C446   1.396       .  A
C445        H449   1.084       .  S
C446        O450   1.372       .  S
O448        H452   0.991       .  S
O450        H451   0.992       .  S
C453        C454   1.400       .  A
C453        C458   1.406       .  A
C454        C455   1.403       .  A
C454        H459   1.083       .  S
C455        C456   1.412       .  A
C455        O460   1.372       .  S
C457        H461   1.084       .  S
O460        H464   0.993       .  S
O462        H463   0.992       .  S
C465        C470   1.414       .  A
C466        H471   1.084       .  S
C467        C468   1.405   1_554  A
C468        C469   1.401       .  A
C469        C470   1.396       .  A
C469        H473   1.084       .  S
C470        O474   1.372       .  S
O472        H476   0.992       .  S
O474        H475   0.992       .  S
C477        C478   1.404       .  A
C477        C482   1.400       .  A
C477        C941   1.481       .  S
C478        C479   1.404       .  A
C478        H483   1.084       .  S
C479        C480   1.406       .  A
C479        C932   1.482       .  S
C480        C481   1.405       .  A
C480        H484   1.084       .  S
C481        C482   1.402       .  A
C481        C917   1.485       .  S
C482        H485   1.084       .  S
C486        C487   1.405       .  A
C486        C491   1.403       .  A
C486        C670   1.490       .  S
C487        C488   1.406       .  A
C487        H492   1.081       .  S
C488        C489   1.411       .  A
C488        C646   1.499       .  S
C489        C490   1.406       .  A
C489        H493   1.082       .  S
C490        C491   1.399       .  A
C490        C655   1.486       .  S
C491        H494   1.081       .  S
C495        C496   1.406       .  A
C495        C500   1.411       .  A
C495        C622   1.484       .  S
C496        C497   1.404       .  A
C496        H501   1.084       .  S
C497        C498   1.405       .  A
C497        C631   1.489       .  S
C498        C499   1.397       .  A
C498        H502   1.084       .  S
C499        C500   1.406       .  A
C499        C610   1.481       .  S
C500        H503   1.084       .  S
C504        C505   1.411       .  A
C504        C509   1.405       .  A
C504        C583   1.492       .  S
C505        C506   1.408       .  A
C505        H510   1.082       .  S
C506        C507   1.406       .  A
C506        C598   1.494       .  S
C507        C508   1.403       .  A
C507        H511   1.083       .  S
C508        C509   1.399       .  A
C508        C571   1.481       .  S
C509        H512   1.084       .  S
O513        C521   1.274       .  A
O514        C522   1.294       .  A
O514       Co534   2.089       .  S
O515        C523   1.252       .  A
O515      Co1487   1.969       .  S
O516       Co536   1.966       .  S
O517        C523   1.262       .  A
O517       Co534   2.020       .  S
O518       C1000   1.276   1_455  A
O518       Co533   2.023       .  S
O519        C522   1.272       .  A
O520        C521   1.262       .  A
O520       Co535   1.955       .  S
C521        C634   1.477       .  S
C522        C619   1.487       .  S
C523        C691   1.469       .  S
C524        C568   1.462       .  S
C524        O994   1.277   1_565  A
O525        C538   1.253       .  A
O525       Co533   1.963       .  S
O526        C777   1.266   1_545  A
O526       Co534   1.957   1_545  S
O527        C540   1.270       .  A
O528        C541   1.298       .  A
O528       Co536   2.106       .  S
O529        C541   1.265       .  A
O530        C540   1.255       .  A
O530       Co533   1.957       .  S
O531        C538   1.269   1_655  A
O531      Co1488   2.034       .  S
O532       C1729   1.282       .  A
O532       Co535   2.044   1_655  S
Co533      O1013   2.021   1_455  S
Co534       O537   2.000       .  S
Co535      O1467   1.968   1_455  S
Co535      O1489   2.022   1_455  S
Co536      O1483   2.036       .  S
O537      Co1009   2.019   1_565  S
O537      Co1487   2.021       .  S
C538        C607   1.478       .  S
C539        C553   1.470   1_565  S
C539        O764   1.266   1_564  A
C539       O1722   1.281   1_554  A
C540        C706   1.467       .  S
C541        C682   1.483       .  S
O542        C550   1.271       .  A
O543        C551   1.261       .  A
O543       Co563   1.991       .  S
O544        C552   1.293       .  A
O544      Co1516   2.057       .  S
O545       Co565   2.022       .  S
O546        C552   1.275       .  A
O546       Co563   1.902       .  S
O547       C1029   1.259       .  A
O547       Co562   1.977       .  S
O548        C551   1.264   1_545  A
O549        C550   1.297       .  A
O549       Co564   2.070       .  S
C550        C595   1.483       .  S
C551        C586   1.478       .  S
C552        C658   1.481       .  S
C553       O1023   1.259   1_545  A
O554        C567   1.268       .  A
O554       Co562   2.015       .  S
O555        C568   1.242       .  A
O555       Co563   1.959       .  S
O556        C569   1.252       .  A
O557        C570   1.265       .  A
O557       Co565   1.976       .  S
O558        C570   1.275       .  A
O559        C569   1.245       .  A
O559       Co562   1.960       .  S
O560        C567   1.258       .  A
O560      Co1517   1.970   1_455  S
O561       C1520   1.253   1_455  A
O561       Co564   2.009       .  S
Co562      O1042   1.933       .  S
Co563       O566   1.933   1_565  S
Co564      O1496   2.059   1_455  S
Co564      O1518   2.247   1_565  S
Co565      O1512   1.966       .  S
O566      Co1038   1.933       .  S
O566      Co1516   2.249   1_545  S
C567        C574   1.465       .  S
C568       O1513   1.251       .  A
C569        C667   1.462       .  S
C570        C643   1.485       .  S
C571        C572   1.407       .  A
C571        C576   1.408       .  A
C572        C573   1.401       .  A
C572        H577   1.084       .  S
C573        C574   1.404       .  A
C573        O578   1.372       .  S
C574        C575   1.402       .  A
C575        C576   1.398       .  A
C575        H579   1.084       .  S
C576        O580   1.372       .  S
O578        H582   0.992       .  S
O580        H581   0.992       .  S
C583        C584   1.411       .  A
C583        C588   1.412       .  A
C584        C585   1.402       .  A
C584        H589   1.083       .  S
C585        C586   1.402       .  A
C585        O590   1.367       .  S
C586        C587   1.404       .  A
C587        C588   1.398       .  A
C587        H591   1.083       .  S
C588        O592   1.373       .  S
O590        H594   0.992       .  S
O592        H593   0.992       .  S
C595        C596   1.402       .  A
C595        C600   1.410       .  A
C596        C597   1.397       .  A
C596        H601   1.084       .  S
C597        C598   1.414       .  A
C597        O602   1.372       .  S
C598        C599   1.408       .  A
C599        C600   1.406       .  A
C599        H603   1.083       .  S
C600        O604   1.370       .  S
O602        H606   0.992       .  S
O604        H605   0.992       .  S
C607        C608   1.402       .  A
C607        C612   1.413       .  A
C608        C609   1.398       .  A
C608        H613   1.084       .  S
C609        C610   1.408       .  A
C609        O614   1.372       .  S
C610        C611   1.404       .  A
C611        C612   1.407       .  A
C611        H615   1.083       .  S
C612        O616   1.372       .  S
O614        H618   0.991       .  S
O616        H617   0.992       .  S
C619        C620   1.405       .  A
C619        C624   1.416       .  A
C620        C621   1.403       .  A
C620        H625   1.084       .  S
C621        C622   1.409       .  A
C621        O626   1.371       .  S
C622        C623   1.401       .  A
C623        C624   1.403       .  A
C623        H627   1.084       .  S
C624        O628   1.374       .  S
O626        H630   0.992       .  S
O628        H629   0.990       .  S
C631        C632   1.410       .  A
C631        C636   1.412       .  A
C632        C633   1.409       .  A
C632        H637   1.083       .  S
C633        C634   1.410       .  A
C633        O638   1.371       .  S
C634        C635   1.401       .  A
C635        C636   1.387       .  A
C635        H639   1.084       .  S
C636        O640   1.372       .  S
O638        H642   0.991       .  S
O640        H641   0.992       .  S
C643        C644   1.401       .  A
C643        C648   1.412       .  A
C644        C645   1.399       .  A
C644        H649   1.083       .  S
C645        C646   1.418       .  A
C645        O650   1.372       .  S
C646        C647   1.407       .  A
C647        C648   1.402       .  A
C647        H651   1.083       .  S
C648        O652   1.372       .  S
O650        H654   0.992       .  S
O652        H653   0.992       .  S
C655        C656   1.404       .  A
C655        C660   1.411       .  A
C656        C657   1.400       .  A
C656        H661   1.083       .  S
C657        C658   1.414       .  A
C657        O662   1.372       .  S
C658        C659   1.403       .  A
C659        C660   1.399       .  A
C659        H663   1.084       .  S
C660        O664   1.373       .  S
O662        H666   0.992       .  S
O664        H665   0.993       .  S
C667        C668   1.400       .  A
C667        C672   1.403       .  A
C668        C669   1.403       .  A
C668        H673   1.084       .  S
C669        C670   1.414       .  A
C669        O674   1.374       .  S
C670        C671   1.409       .  A
C671        C672   1.393       .  A
C671        H675   1.081       .  S
C672        O676   1.373       .  S
O674        H678   0.993       .  S
O676        H677   0.992       .  S
C679        C918   1.403       .  A
C679        C684   1.411       .  A
C679        C719   1.483       .  S
C680        C917   1.403   1_554  A
C680        C919   1.398       .  A
C680        H685   1.084       .  S
C681        C918   1.398       .  A
C681        C682   1.413       .  A
C681        O924   1.370       .  S
C682        C683   1.405       .  A
C683        C684   1.399       .  A
C683        H687   1.084       .  S
C684        O688   1.372       .  S
O686        C919   1.371       .  S
O686        H690   0.992       .  S
O688        H689   0.992       .  S
C691        C692   1.400       .  A
C691        C696   1.408       .  A
C692        C693   1.400       .  A
C692        H697   1.083       .  S
C693        C694   1.410       .  A
C693        O698   1.372       .  S
C694        C933   1.403       .  A
C694        C717   1.480       .  S
C695        C932   1.403   1_554  A
C695        C934   1.400       .  A
C695        H699   1.084       .  S
C696        C933   1.401       .  A
C696        O938   1.372       .  S
O698        H702   0.992       .  S
O700        C934   1.372       .  S
O700        H701   0.992       .  S
C703        C942   1.406       .  A
C703        C708   1.413       .  A
C703        C715   1.484       .  S
C704        C941   1.404   1_554  A
C704        C943   1.400       .  A
C704        H709   1.084       .  S
C705        C942   1.400       .  A
C705        C706   1.405       .  A
C705        O948   1.370       .  S
C706        C707   1.400       .  A
C707        C708   1.396       .  A
C707        H711   1.084       .  S
C708        O712   1.372       .  S
O710        C943   1.369       .  S
O710        H714   0.992       .  S
O712        H713   0.992       .  S
C715        C716   1.404       .  A
C715        C720   1.402       .  A
C716        C717   1.403       .  A
C716        H721   1.084       .  S
C717        C718   1.405       .  A
C718        C719   1.404       .  A
C718        H722   1.084       .  S
C719        C720   1.403       .  A
C720        H723   1.084       .  S
C724        C725   1.403       .  A
C724        C729   1.400       .  A
C724        C908   1.484       .  S
C725        C726   1.408       .  A
C725        H730   1.081       .  S
C726        C727   1.411       .  A
C726        C884   1.499       .  S
C727        C728   1.407       .  A
C727        H731   1.082       .  S
C728        C729   1.399       .  A
C728        C893   1.483       .  S
C729        H732   1.082       .  S
C733        C734   1.403       .  A
C733        C738   1.408       .  A
C733        C860   1.485       .  S
C734        C735   1.406       .  A
C734        H739   1.083       .  S
C735        C736   1.407       .  A
C735        C869   1.493       .  S
C736        C737   1.399       .  A
C736        H740   1.082       .  S
C737        C738   1.409       .  A
C737        C848   1.492       .  S
C738        H741   1.083       .  S
C742        C743   1.409       .  A
C742        C747   1.403       .  A
C742        C821   1.490       .  S
C743        C744   1.408       .  A
C743        H748   1.081       .  S
C744        C745   1.405       .  A
C744        C836   1.495       .  S
C745        C746   1.403       .  A
C745        H749   1.083       .  S
C746        C747   1.398       .  A
C746        C809   1.478       .  S
C747        H750   1.084       .  S
O751        C759   1.273       .  A
O752        C760   1.294       .  A
O752       Co772   2.092       .  S
O753        C761   1.253       .  A
O753      Co1725   1.972       .  S
O754       Co774   1.972       .  S
O755        C761   1.264       .  A
O755       Co772   2.021       .  S
O756       C1238   1.275   1_455  A
O756       Co771   2.022       .  S
O757        C760   1.272       .  A
O758        C759   1.259       .  A
O758       Co773   1.950       .  S
C759        C872   1.476       .  S
C760        C857   1.490       .  S
C761        C929   1.471       .  S
C762        C806   1.460       .  S
C762       O1232   1.277   1_565  A
O763        C776   1.253       .  A
O763       Co771   1.956       .  S
O764       Co772   1.958   1_545  S
O765        C778   1.270       .  A
O766        C779   1.300       .  A
O766       Co774   2.115       .  S
O767        C779   1.265       .  A
O768        C778   1.256       .  A
O768       Co771   1.958       .  S
O769        C776   1.269   1_655  A
O769      Co1726   2.033       .  S
O770       C1491   1.280   1_556  A
O770       Co773   2.038   1_655  S
Co771      O1251   2.018   1_455  S
Co772       O775   1.998       .  S
Co773      O1705   1.973   1_455  S
Co773      O1727   2.017   1_455  S
Co774      O1721   2.031       .  S
O775      Co1247   2.016   1_565  S
O775      Co1725   2.019       .  S
C776        C845   1.489       .  S
C777        C791   1.472   1_565  S
C777       O1484   1.283       .  A
C778        C944   1.467       .  S
C779        C920   1.486       .  S
O780        C788   1.271   1_545  A
O781        C789   1.258       .  A
O781       Co801   1.986       .  S
O782        C790   1.296       .  A
O782      Co1754   2.068       .  S
O783       Co803   2.029       .  S
O784        C790   1.274       .  A
O784       Co801   1.899       .  S
O785       C1267   1.258       .  A
O785       Co800   1.978       .  S
O786        C789   1.263   1_545  A
O787        C788   1.298       .  A
O787       Co802   2.071       .  S
C788        C833   1.482       .  S
C789        C824   1.472       .  S
C790        C896   1.478       .  S
C791       O1261   1.258   1_545  A
O792        C805   1.267       .  A
O792       Co800   2.012       .  S
O793        C806   1.242       .  A
O793       Co801   1.954       .  S
O794        C807   1.253       .  A
O795        C808   1.266       .  A
O795       Co803   1.979       .  S
O796        C808   1.275       .  A
O797        C807   1.246       .  A
O797       Co800   1.967       .  S
O798        C805   1.257       .  A
O798      Co1755   1.966   1_455  S
O799       C1758   1.252   1_455  A
O799       Co802   2.005       .  S
Co800      O1280   1.931       .  S
Co801       O804   1.933   1_565  S
Co802      O1734   2.063   1_455  S
Co802      O1756   2.252   1_565  S
Co803      O1750   1.967       .  S
O804      Co1276   1.926       .  S
O804      Co1754   2.249   1_545  S
C805        C812   1.461       .  S
C806       O1751   1.253       .  A
C807        C905   1.465       .  S
C808        C881   1.483       .  S
C809        C810   1.407       .  A
C809        C814   1.408       .  A
C810        C811   1.399       .  A
C810        H815   1.084       .  S
C811        C812   1.403       .  A
C811        O816   1.372       .  S
C812        C813   1.401       .  A
C813        C814   1.397       .  A
C813        H817   1.084       .  S
C814        O818   1.372       .  S
O816        H820   0.992       .  S
O818        H819   0.992       .  S
C821        C822   1.411       .  A
C821        C826   1.411       .  A
C822        C823   1.401       .  A
C822        H827   1.083       .  S
C823        C824   1.401       .  A
C823        O828   1.368       .  S
C824        C825   1.403       .  A
C825        C826   1.396       .  A
C825        H829   1.083       .  S
C826        O830   1.373       .  S
O828        H832   0.992       .  S
O830        H831   0.992       .  S
C833        C834   1.402       .  A
C833        C838   1.409       .  A
C834        C835   1.398       .  A
C834        H839   1.084       .  S
C835        C836   1.416       .  A
C835        O840   1.372       .  S
C836        C837   1.407       .  A
C837        C838   1.401       .  A
C837        H841   1.083       .  S
C838        O842   1.369       .  S
O840        H844   0.992       .  S
O842        H843   0.991       .  S
C845        C846   1.407       .  A
C845        C850   1.408       .  A
C846        C847   1.396       .  A
C846        H851   1.084       .  S
C847        C848   1.409       .  A
C847        O852   1.372       .  S
C848        C849   1.411       .  A
C849        C850   1.408       .  A
C849        H853   1.083       .  S
C850        O854   1.369       .  S
O852        H856   0.992       .  S
O854        H855   0.992   1_455  S
C857        C858   1.407       .  A
C857        C862   1.416       .  A
C858        C859   1.404       .  A
C858        H863   1.083       .  S
C859        C860   1.410       .  A
C859        O864   1.371       .  S
C860        C861   1.401       .  A
C861        C862   1.402       .  A
C861        H865   1.084       .  S
C862        O866   1.373       .  S
O864        H868   0.992       .  S
O866        H867   0.992       .  S
C869        C870   1.412       .  A
C869        C874   1.415       .  A
C870        C871   1.406       .  A
C870        H875   1.083       .  S
C871        C872   1.408       .  A
C871        O876   1.371       .  S
C872        C873   1.401       .  A
C873        C874   1.386       .  A
C873        H877   1.084       .  S
C874        O878   1.372       .  S
O876        H880   0.991       .  S
O878        H879   0.992       .  S
C881        C882   1.400       .  A
C881        C886   1.412       .  A
C882        C883   1.395       .  A
C882        H887   1.082       .  S
C883        C884   1.417       .  A
C883        O888   1.372       .  S
C884        C885   1.409       .  A
C885        C886   1.404       .  A
C885        H889   1.083       .  S
C886        O890   1.372       .  S
O888        H892   0.992       .  S
O890        H891   0.991       .  S
C893        C894   1.403       .  A
C893        C898   1.410       .  A
C894        C895   1.401       .  A
C894        H899   1.084       .  S
C895        C896   1.412       .  A
C895        O900   1.372       .  S
C896        C897   1.403       .  A
C897        C898   1.400       .  A
C897        H901   1.084       .  S
C898        O902   1.373       .  S
O900        H904   0.992       .  S
O902        H903   0.991       .  S
C905        C906   1.401       .  A
C905        C910   1.404       .  A
C906        C907   1.405       .  A
C906        H911   1.083       .  S
C907        C908   1.412       .  A
C907        O912   1.373       .  S
C908        C909   1.406       .  A
C909        C910   1.393       .  A
C909        H913   1.083       .  S
C910        O914   1.373       .  S
O912        H916   0.992       .  S
O914        H915   0.992       .  S
C917        C922   1.411       .  A
C918        H923   1.084       .  S
C919        C920   1.414   1_554  A
C920        C921   1.405       .  A
C921        C922   1.401       .  A
C921        H925   1.083       .  S
C922        O926   1.372       .  S
O924        H928   0.992       .  S
O926        H927   0.991       .  S
C929        C930   1.401       .  A
C929        C934   1.408   1_556  A
C930        C931   1.402       .  A
C930        H935   1.083       .  S
C931        C932   1.411       .  A
C931        O936   1.372       .  S
C933        H937   1.084       .  S
O936        H940   0.992       .  S
O938        H939   0.992       .  S
C941        C946   1.413       .  A
C942        H947   1.083       .  S
C943        C944   1.405   1_554  A
C944        C945   1.400       .  A
C945        C946   1.396       .  A
C945        H949   1.084       .  S
C946        O950   1.372       .  S
O948        H952   0.991       .  S
O950        H951   0.992       .  S
C953        C954   1.404       .  A
C953        C958   1.401       .  A
C953       C1417   1.481       .  S
C954        C955   1.404       .  A
C954        H959   1.083       .  S
C955        C956   1.406       .  A
C955       C1408   1.482       .  S
C956        C957   1.404       .  A
C956        H960   1.084       .  S
C957        C958   1.401       .  A
C957       C1393   1.482       .  S
C958        H961   1.084       .  S
C962        C963   1.404       .  A
C962        C967   1.402       .  A
C962       C1146   1.485       .  S
C963        C964   1.406       .  A
C963        H968   1.082       .  S
C964        C965   1.412       .  A
C964       C1122   1.498       .  S
C965        C966   1.407       .  A
C965        H969   1.082       .  S
C966        C967   1.399       .  A
C966       C1131   1.487       .  S
C967        H970   1.082       .  S
C971        C972   1.408       .  A
C971        C976   1.413       .  A
C971       C1098   1.489       .  S
C972        C973   1.405       .  A
C972        H977   1.084       .  S
C973        C974   1.404       .  A
C973       C1107   1.489       .  S
C974        C975   1.396       .  A
C974        H978   1.084       .  S
C975        C976   1.408       .  A
C975       C1086   1.482       .  S
C976        H979   1.084       .  S
C980        C981   1.412       .  A
C980        C985   1.405       .  A
C980       C1059   1.495       .  S
C981        C982   1.410       .  A
C981        H986   1.081       .  S
C982        C983   1.406       .  A
C982       C1074   1.497       .  S
C983        C984   1.401       .  A
C983        H987   1.083       .  S
C984        C985   1.397       .  A
C984       C1047   1.478       .  S
C985        H988   1.083       .  S
O989        C997   1.274       .  A
O989      Co1485   2.033       .  S
O990        C998   1.295       .  A
O990      Co1010   2.095       .  S
O991        C999   1.252       .  A
O992       C1476   1.270       .  A
O992      Co1012   1.970       .  S
O993        C999   1.261       .  A
O993      Co1010   2.019       .  S
O994      Co1009   2.026       .  S
O995        C998   1.272       .  A
O995      Co1488   1.909       .  S
O996        C997   1.260       .  A
O996      Co1011   1.954       .  S
C997       C1110   1.477       .  S
C998       C1095   1.493       .  S
C999       C1167   1.468       .  S
C1000      C1044   1.462       .  S
C1000      O1468   1.270       .  A
O1001      C1014   1.253       .  A
O1001     Co1009   1.964       .  S
O1002      C1253   1.266       .  A
O1002     Co1010   1.960       .  S
O1003      C1016   1.269   1_565  A
O1003     Co1487   2.019       .  S
O1004      C1017   1.298       .  A
O1004     Co1012   2.107   1_545  S
O1005      C1017   1.265   1_565  A
O1005     Co1486   1.883       .  S
O1006      C1016   1.256       .  A
O1006     Co1009   1.957       .  S
O1007      C1014   1.269       .  A
O1008     Co1011   2.042       .  S
Co1009     O1465   2.032   1_545  S
Co1010     O1481   1.885       .  S
Co1010     O1013   2.001       .  S
Co1011     O1479   2.025       .  S
Co1012     O1471   1.906       .  S
Co1012     O1489   2.011       .  S
O1013     Co1488   2.015       .  S
C1014      C1083   1.481       .  S
C1015      C1029   1.470   1_655  S
C1015      O1240   1.267   1_554  A
C1016      C1182   1.464       .  S
C1017      C1158   1.482       .  S
O1018      C1026   1.272       .  A
O1018     Co1514   1.906       .  S
O1019      C1027   1.260       .  A
O1019     Co1039   1.985       .  S
O1020      C1028   1.295       .  A
O1021      C1505   1.270       .  A
O1021     Co1041   2.023   1_455  S
O1022      C1028   1.273       .  A
O1022     Co1039   1.897       .  S
O1023     Co1038   1.981   1_565  S
O1024      C1027   1.264       .  A
O1024     Co1517   2.003       .  S
O1025      C1026   1.298       .  A
O1025     Co1040   2.069       .  S
C1026      C1071   1.484       .  S
C1027      C1062   1.477       .  S
C1028      C1134   1.482       .  S
C1029      O1497   1.271       .  A
O1030      C1043   1.267       .  A
O1030     Co1038   2.012       .  S
O1031      C1044   1.242       .  A
O1031     Co1039   1.954       .  S
O1032      C1045   1.251   1_565  A
O1032     Co1516   1.985       .  S
O1033      C1046   1.266       .  A
O1033     Co1041   1.979       .  S
O1034      C1046   1.276       .  A
O1034     Co1515   2.019   1_545  S
O1035      C1045   1.246       .  A
O1035     Co1038   1.966       .  S
O1036      C1043   1.258       .  A
O1037     Co1040   2.004       .  S
Co1038     O1494   1.907       .  S
Co1039     O1510   2.018       .  S
Co1039     O1042   1.930   1_655  S
Co1040     O1508   1.992       .  S
Co1041     O1500   2.002       .  S
Co1041     O1518   2.080   1_655  S
O1042     Co1517   2.081   1_455  S
C1043      C1050   1.463       .  S
C1045      C1143   1.461       .  S
C1046      C1119   1.485       .  S
C1047      C1048   1.406       .  A
C1047      C1052   1.407       .  A
C1048      C1049   1.400       .  A
C1048      H1053   1.084       .  S
C1049      C1050   1.404       .  A
C1049      O1054   1.372       .  S
C1050      C1051   1.401       .  A
C1051      C1052   1.398       .  A
C1051      H1055   1.084       .  S
C1052      O1056   1.372       .  S
O1054      H1058   0.993       .  S
O1056      H1057   0.992       .  S
C1059      C1060   1.412       .  A
C1059      C1064   1.412       .  A
C1060      C1061   1.401       .  A
C1060      H1065   1.083       .  S
C1061      C1062   1.402       .  A
C1061      O1066   1.369       .  S
C1062      C1063   1.404       .  A
C1063      C1064   1.398       .  A
C1063      H1067   1.083       .  S
C1064      O1068   1.372       .  S
O1066      H1070   0.992       .  S
O1068      H1069   0.992       .  S
C1071      C1072   1.402       .  A
C1071      C1076   1.410       .  A
C1072      C1073   1.397       .  A
C1072      H1077   1.084       .  S
C1073      C1074   1.415       .  A
C1073      O1078   1.372       .  S
C1074      C1075   1.408       .  A
C1075      C1076   1.405       .  A
C1075      H1079   1.083       .  S
C1076      O1080   1.370       .  S
O1078      H1082   0.992       .  S
O1080      H1081   0.991       .  S
C1083      C1084   1.405       .  A
C1083      C1088   1.413       .  A
C1084      C1085   1.399       .  A
C1084      H1089   1.084       .  S
C1085      C1086   1.407       .  A
C1085      O1090   1.372       .  S
C1086      C1087   1.405       .  A
C1087      C1088   1.408       .  A
C1087      H1091   1.083       .  S
C1088      O1092   1.373       .  S
O1090      H1094   0.992       .  S
O1092      H1093   0.990       .  S
C1095      C1096   1.407       .  A
C1095      C1100   1.416       .  A
C1096      C1097   1.405       .  A
C1096      H1101   1.084       .  S
C1097      C1098   1.411       .  A
C1097      O1102   1.372       .  S
C1098      C1099   1.401       .  A
C1099      C1100   1.405       .  A
C1099      H1103   1.084       .  S
C1100      O1104   1.374       .  S
O1102      H1106   0.991       .  S
O1104      H1105   0.991       .  S
C1107      C1108   1.410       .  A
C1107      C1112   1.412       .  A
C1108      C1109   1.409       .  A
C1108      H1113   1.083       .  S
C1109      C1110   1.409       .  A
C1109      O1114   1.371       .  S
C1110      C1111   1.401       .  A
C1111      C1112   1.387       .  A
C1111      H1115   1.084       .  S
C1112      O1116   1.373       .  S
O1114      H1118   0.991       .  S
O1116      H1117   0.992       .  S
C1119      C1120   1.402       .  A
C1119      C1124   1.412       .  A
C1120      C1121   1.399       .  A
C1120      H1125   1.083       .  S
C1121      C1122   1.418       .  A
C1121      O1126   1.372       .  S
C1122      C1123   1.407       .  A
C1123      C1124   1.402       .  A
C1123      H1127   1.083       .  S
C1124      O1128   1.371       .  S
O1126      H1130   0.993       .  S
O1128      H1129   0.992       .  S
C1131      C1132   1.405       .  A
C1131      C1136   1.411       .  A
C1132      C1133   1.402       .  A
C1132      H1137   1.083       .  S
C1133      C1134   1.413       .  A
C1133      O1138   1.372       .  S
C1134      C1135   1.403       .  A
C1135      C1136   1.399       .  A
C1135      H1139   1.084       .  S
C1136      O1140   1.373       .  S
O1138      H1142   0.992       .  S
O1140      H1141   0.992       .  S
C1143      C1144   1.401       .  A
C1143      C1148   1.403       .  A
C1144      C1145   1.404       .  A
C1144      H1149   1.084       .  S
C1145      C1146   1.414       .  A
C1145      O1150   1.374       .  S
C1146      C1147   1.406       .  A
C1147      C1148   1.391       .  A
C1147      H1151   1.082       .  S
C1148      O1152   1.373   1_545  S
O1150      H1154   0.992       .  S
O1152      H1153   0.992   1_565  S
C1155      C1394   1.403       .  A
C1155      C1160   1.410       .  A
C1155      C1195   1.481       .  S
C1156      C1393   1.404   1_554  A
C1156      C1395   1.399       .  A
C1156      H1161   1.084       .  S
C1157      C1394   1.397       .  A
C1157      C1158   1.413       .  A
C1157      O1400   1.370       .  S
C1158      C1159   1.405       .  A
C1159      C1160   1.399       .  A
C1159      H1163   1.083       .  S
C1160      O1164   1.372       .  S
O1162      C1395   1.372       .  S
O1162      H1166   0.992       .  S
O1164      H1165   0.992       .  S
C1167      C1168   1.399       .  A
C1167      C1172   1.408       .  A
C1168      C1169   1.399       .  A
C1168      H1173   1.083       .  S
C1169      C1170   1.410       .  A
C1169      O1174   1.372       .  S
C1170      C1409   1.404       .  A
C1170      C1193   1.480       .  S
C1171      C1408   1.404   1_554  A
C1171      C1410   1.399   1_554  A
C1171      H1175   1.084       .  S
C1172      C1409   1.401       .  A
C1172      O1414   1.372       .  S
O1174      H1178   0.992       .  S
O1176      C1410   1.372   1_554  S
O1176      H1177   0.992       .  S
C1179      C1418   1.403       .  A
C1179      C1184   1.413       .  A
C1179      C1191   1.480       .  S
C1180      C1417   1.404   1_554  A
C1180      C1419   1.399       .  A
C1180      H1185   1.084       .  S
C1181      C1418   1.397       .  A
C1181      C1182   1.403       .  A
C1181      O1424   1.368       .  S
C1182      C1183   1.401       .  A
C1183      C1184   1.397       .  A
C1183      H1187   1.084       .  S
C1184      O1188   1.372       .  S
O1186      C1419   1.369       .  S
O1186      H1190   0.992       .  S
O1188      H1189   0.992       .  S
C1191      C1192   1.404       .  A
C1191      C1196   1.400       .  A
C1192      C1193   1.403       .  A
C1192      H1197   1.084       .  S
C1193      C1194   1.405       .  A
C1194      C1195   1.404       .  A
C1194      H1198   1.084       .  S
C1195      C1196   1.402       .  A
C1196      H1199   1.084       .  S
C1200      C1201   1.404       .  A
C1200      C1205   1.403       .  A
C1200      C1384   1.488       .  S
C1201      C1202   1.407       .  A
C1201      H1206   1.081       .  S
C1202      C1203   1.410       .  A
C1202      C1360   1.498       .  S
C1203      C1204   1.406       .  A
C1203      H1207   1.082       .  S
C1204      C1205   1.399       .  A
C1204      C1369   1.484       .  S
C1205      H1208   1.082       .  S
C1209      C1210   1.404       .  A
C1209      C1214   1.409       .  A
C1209      C1336   1.486       .  S
C1210      C1211   1.407       .  A
C1210      H1215   1.083       .  S
C1211      C1212   1.408       .  A
C1211      C1345   1.494       .  S
C1212      C1213   1.400       .  A
C1212      H1216   1.083       .  S
C1213      C1214   1.409       .  A
C1213      C1324   1.488       .  S
C1214      H1217   1.084       .  S
C1218      C1219   1.411       .  A
C1218      C1223   1.404       .  A
C1218      C1297   1.493       .  S
C1219      C1220   1.411       .  A
C1219      H1224   1.082       .  S
C1220      C1221   1.406       .  A
C1220      C1312   1.495       .  S
C1221      C1222   1.402       .  A
C1221      H1225   1.083       .  S
C1222      C1223   1.398       .  A
C1222      C1285   1.476       .  S
C1223      H1226   1.084       .  S
O1227      C1235   1.275       .  A
O1227     Co1723   2.039       .  S
O1228      C1236   1.295       .  A
O1228     Co1248   2.098       .  S
O1229      C1237   1.253       .  A
O1230      C1714   1.269       .  A
O1230     Co1250   1.967   1_565  S
O1231      C1237   1.261       .  A
O1231     Co1248   2.013       .  S
O1232     Co1247   2.028       .  S
O1233      C1236   1.272       .  A
O1233     Co1726   1.909       .  S
O1234      C1235   1.258       .  A
O1234     Co1249   1.949       .  S
C1235      C1348   1.480       .  S
C1236      C1333   1.492       .  S
C1237      C1405   1.466       .  S
C1238      C1282   1.459       .  S
C1238      O1706   1.269       .  A
O1239      C1252   1.251       .  A
O1239     Co1247   1.954       .  S
O1240     Co1248   1.961       .  S
O1241      C1254   1.271   1_565  A
O1241     Co1725   2.027       .  S
O1242      C1255   1.297       .  A
O1242     Co1250   2.100       .  S
O1243      C1255   1.267   1_565  A
O1243     Co1724   1.886       .  S
O1244      C1254   1.255       .  A
O1244     Co1247   1.955       .  S
O1245      C1252   1.269       .  A
O1246     Co1249   2.033       .  S
Co1247     O1703   2.028   1_545  S
Co1248     O1719   1.887       .  S
Co1248     O1251   2.000       .  S
Co1249     O1717   2.034       .  S
Co1250     O1709   1.909   1_545  S
Co1250     O1727   2.008   1_545  S
O1251     Co1726   2.018       .  S
C1252      C1321   1.490       .  S
C1253      C1267   1.470   1_655  S
C1254      C1420   1.466       .  S
C1255      C1396   1.482       .  S
O1256      C1264   1.271       .  A
O1256     Co1752   1.902       .  S
O1257      C1265   1.260       .  A
O1257     Co1277   1.990       .  S
O1258      C1266   1.296       .  A
O1259      C1743   1.270       .  A
O1259     Co1279   2.024       .  S
O1260      C1266   1.274       .  A
O1260     Co1277   1.899       .  S
O1261     Co1276   1.982   1_565  S
O1262      C1265   1.264       .  A
O1262     Co1755   2.009       .  S
O1263      C1264   1.298       .  A
O1263     Co1278   2.075       .  S
C1264      C1309   1.485       .  S
C1265      C1300   1.479       .  S
C1266      C1372   1.479       .  S
C1267      O1735   1.270       .  A
O1268      C1281   1.267       .  A
O1268     Co1276   2.015       .  S
O1269      C1282   1.241       .  A
O1269     Co1277   1.951       .  S
O1270      C1283   1.252   1_565  A
O1270     Co1754   1.991       .  S
O1271      C1284   1.264       .  A
O1271     Co1279   1.976   1_655  S
O1272      C1284   1.275       .  A
O1272     Co1753   2.018   1_545  S
O1273      C1283   1.246       .  A
O1273     Co1276   1.964       .  S
O1274      C1281   1.256       .  A
O1275     Co1278   2.008       .  S
Co1276     O1732   1.897       .  S
Co1277     O1748   2.020       .  S
Co1277     O1280   1.934   1_655  S
Co1278     O1746   1.992       .  S
Co1279     O1738   2.008   1_455  S
Co1279     O1756   2.083       .  S
O1280     Co1755   2.080   1_455  S
C1281      C1288   1.464       .  S
C1283      C1381   1.463       .  S
C1284      C1357   1.485       .  S
C1285      C1286   1.405       .  A
C1285      C1290   1.406       .  A
C1286      C1287   1.399       .  A
C1286      H1291   1.084       .  S
C1287      C1288   1.404       .  A
C1287      O1292   1.372       .  S
C1288      C1289   1.403       .  A
C1289      C1290   1.399       .  A
C1289      H1293   1.084       .  S
C1290      O1294   1.372       .  S
O1292      H1296   0.993       .  S
O1294      H1295   0.992       .  S
C1297      C1298   1.410       .  A
C1297      C1302   1.412       .  A
C1298      C1299   1.402       .  A
C1298      H1303   1.083       .  S
C1299      C1300   1.401       .  A
C1299      O1304   1.367       .  S
C1300      C1301   1.405       .  A
C1301      C1302   1.400       .  A
C1301      H1305   1.082       .  S
C1302      O1306   1.373       .  S
O1304      H1308   0.991       .  S
O1306      H1307   0.992       .  S
C1309      C1310   1.403       .  A
C1309      C1314   1.410       .  A
C1310      C1311   1.399       .  A
C1310      H1315   1.084       .  S
C1311      C1312   1.415       .  A
C1311      O1316   1.372       .  S
C1312      C1313   1.407       .  A
C1313      C1314   1.404       .  A
C1313      H1317   1.083       .  S
C1314      O1318   1.369       .  S
O1316      H1320   0.992       .  S
O1318      H1319   0.991       .  S
C1321      C1322   1.407       .  A
C1321      C1326   1.412       .  A
C1322      C1323   1.397       .  A
C1322      H1327   1.084       .  S
C1323      C1324   1.406       .  A
C1323      O1328   1.372       .  S
C1324      C1325   1.409       .  A
C1325      C1326   1.411       .  A
C1325      H1329   1.083       .  S
C1326      O1330   1.370       .  S
O1328      H1332   0.992       .  S
O1330      H1331   0.991       .  S
C1333      C1334   1.407       .  A
C1333      C1338   1.416       .  A
C1334      C1335   1.406       .  A
C1334      H1339   1.083       .  S
C1335      C1336   1.410       .  A
C1335      O1340   1.371       .  S
C1336      C1337   1.401       .  A
C1337      C1338   1.404       .  A
C1337      H1341   1.084       .  S
C1338      O1342   1.373       .  S
O1340      H1344   0.992       .  S
O1342      H1343   0.991       .  S
C1345      C1346   1.412       .  A
C1345      C1350   1.414       .  A
C1346      C1347   1.407       .  A
C1346      H1351   1.083       .  S
C1347      C1348   1.408       .  A
C1347      O1352   1.371       .  S
C1348      C1349   1.403       .  A
C1349      C1350   1.391       .  A
C1349      H1353   1.084       .  S
C1350      O1354   1.372       .  S
O1352      H1356   0.991       .  S
O1354      H1355   0.992       .  S
C1357      C1358   1.401       .  A
C1357      C1362   1.413       .  A
C1358      C1359   1.397       .  A
C1358      H1363   1.083       .  S
C1359      C1360   1.417       .  A
C1359      O1364   1.372       .  S
C1360      C1361   1.408       .  A
C1361      C1362   1.402       .  A
C1361      H1365   1.083       .  S
C1362      O1366   1.371       .  S
O1364      H1368   0.993       .  S
O1366      H1367   0.992       .  S
C1369      C1370   1.403       .  A
C1369      C1374   1.411       .  A
C1370      C1371   1.400       .  A
C1370      H1375   1.084       .  S
C1371      C1372   1.412       .  A
C1371      O1376   1.372       .  S
C1372      C1373   1.404       .  A
C1373      C1374   1.400       .  A
C1373      H1377   1.084       .  S
C1374      O1378   1.372       .  S
O1376      H1380   0.992       .  S
O1378      H1379   0.992       .  S
C1381      C1382   1.399       .  A
C1381      C1386   1.404       .  A
C1382      C1383   1.403       .  A
C1382      H1387   1.084       .  S
C1383      C1384   1.413       .  A
C1383      O1388   1.374       .  S
C1384      C1385   1.408       .  A
C1385      C1386   1.394       .  A
C1385      H1389   1.082       .  S
C1386      O1390   1.373   1_545  S
O1388      H1392   0.993       .  S
O1390      H1391   0.992   1_565  S
C1393      C1398   1.410       .  A
C1394      H1399   1.084       .  S
C1395      C1396   1.413   1_554  A
C1396      C1397   1.406       .  A
C1397      C1398   1.398       .  A
C1397      H1401   1.084       .  S
C1398      O1402   1.372       .  S
O1400      H1404   0.991       .  S
O1402      H1403   0.992       .  S
C1405      C1406   1.399       .  A
C1405      C1410   1.407       .  A
C1406      C1407   1.400       .  A
C1406      H1411   1.083       .  S
C1407      C1408   1.412       .  A
C1407      O1412   1.372       .  S
C1409      H1413   1.084       .  S
O1412      H1416   0.993       .  S
O1414      H1415   0.992       .  S
C1417      C1422   1.413       .  A
C1418      H1423   1.084       .  S
C1419      C1420   1.406   1_554  A
C1420      C1421   1.400       .  A
C1421      C1422   1.396       .  A
C1421      H1425   1.084       .  S
C1422      O1426   1.372       .  S
O1424      H1428   0.991       .  S
O1426      H1427   0.992       .  S
C1429      C1430   1.407       .  A
C1429      C1434   1.403       .  A
C1429      C1893   1.489       .  S
C1430      C1431   1.407       .  A
C1430      H1435   1.083       .  S
C1431      C1432   1.407       .  A
C1431      C1884   1.488       .  S
C1432      C1433   1.406       .  A
C1432      H1436   1.083       .  S
C1433      C1434   1.404       .  A
C1433      C1869   1.489       .  S
C1434      H1437   1.083   1_556  S
C1438      C1439   1.405       .  A
C1438      C1443   1.401       .  A
C1438      C1622   1.487       .  S
C1439      C1440   1.408       .  A
C1439      H1444   1.081       .  S
C1440      C1441   1.413       .  A
C1440      C1598   1.504       .  S
C1441      C1442   1.409       .  A
C1441      H1445   1.082       .  S
C1442      C1443   1.400       .  A
C1442      C1607   1.490       .  S
C1443      H1446   1.082       .  S
C1447      C1448   1.407       .  A
C1447      C1452   1.413       .  A
C1447      C1574   1.486       .  S
C1448      C1449   1.404       .  A
C1448      H1453   1.084       .  S
C1449      C1450   1.404       .  A
C1449      C1583   1.489       .  S
C1450      C1451   1.397       .  A
C1450      H1454   1.084       .  S
C1451      C1452   1.408       .  A
C1451      C1562   1.484       .  S
C1452      H1455   1.083       .  S
C1456      C1457   1.412       .  A
C1456      C1461   1.403       .  A
C1456      C1535   1.494       .  S
C1457      C1458   1.409       .  A
C1457      H1462   1.081       .  S
C1458      C1459   1.405       .  A
C1458      C1550   1.493       .  S
C1459      C1460   1.401       .  A
C1459      H1463   1.083       .  S
C1460      C1461   1.397       .  A
C1460      C1523   1.475       .  S
C1461      H1464   1.083       .  S
O1465      C1473   1.274       .  A
O1466      C1474   1.296       .  A
O1466     Co1486   2.096       .  S
O1467      C1475   1.252       .  A
O1468     Co1488   1.972       .  S
O1469      C1475   1.263       .  A
O1469     Co1486   2.024       .  S
O1470     Co1485   2.024       .  S
O1471      C1474   1.271       .  A
O1472      C1473   1.261       .  A
O1472     Co1487   1.954       .  S
C1473      C1586   1.476       .  S
C1474      C1571   1.489       .  S
C1475      C1643   1.472       .  S
C1476      C1520   1.462       .  S
O1477      C1490   1.254       .  A
O1477     Co1485   1.965       .  S
O1478      C1729   1.265   1_545  A
O1478     Co1486   1.961   1_545  S
O1479      C1492   1.271       .  A
O1480      C1493   1.298       .  A
O1480     Co1488   2.111       .  S
O1481      C1493   1.264       .  A
O1482      C1492   1.258       .  A
O1482     Co1485   1.961       .  S
O1483      C1490   1.269       .  A
O1484     Co1487   2.047       .  S
Co1486     O1489   2.001       .  S
C1490      C1559   1.479       .  S
C1491      C1505   1.471   1_665  S
C1491      O1716   1.268   1_564  A
C1492      C1658   1.470       .  S
C1493      C1634   1.486       .  S
O1494      C1502   1.271   1_545  A
O1495      C1503   1.259       .  A
O1495     Co1515   1.985       .  S
O1496      C1504   1.293       .  A
O1497     Co1517   2.027   1_455  S
O1498      C1504   1.274       .  A
O1498     Co1515   1.905       .  S
O1499     Co1514   1.981       .  S
O1500      C1503   1.264   1_545  A
O1501      C1502   1.298       .  A
O1501     Co1516   2.070       .  S
C1502      C1547   1.484       .  S
C1503      C1538   1.475       .  S
C1504      C1610   1.484       .  S
O1506      C1519   1.267       .  A
O1506     Co1514   2.009       .  S
O1507      C1520   1.242       .  A
O1507     Co1515   1.954       .  S
O1508      C1521   1.252       .  A
O1509      C1522   1.267       .  A
O1509     Co1517   1.982       .  S
O1510      C1522   1.275       .  A
O1511      C1521   1.246       .  A
O1511     Co1514   1.969       .  S
O1512      C1519   1.258       .  A
O1513     Co1516   2.005       .  S
Co1515     O1518   1.937   1_665  S
C1519      C1526   1.459       .  S
C1521      C1619   1.466       .  S
C1522      C1595   1.487       .  S
C1523      C1524   1.406       .  A
C1523      C1528   1.407       .  A
C1524      C1525   1.397       .  A
C1524      H1529   1.084       .  S
C1525      C1526   1.402       .  A
C1525      O1530   1.372       .  S
C1526      C1527   1.402       .  A
C1527      C1528   1.397       .  A
C1527      H1531   1.084       .  S
C1528      O1532   1.372       .  S
O1530      H1534   0.992       .  S
O1532      H1533   0.992   1_554  S
C1535      C1536   1.413       .  A
C1535      C1540   1.412       .  A
C1536      C1537   1.402       .  A
C1536      H1541   1.083       .  S
C1537      C1538   1.402       .  A
C1537      O1542   1.369       .  S
C1538      C1539   1.403       .  A
C1539      C1540   1.397       .  A
C1539      H1543   1.083       .  S
C1540      O1544   1.373       .  S
O1542      H1546   0.992       .  S
O1544      H1545   0.992       .  S
C1547      C1548   1.402       .  A
C1547      C1552   1.410       .  A
C1548      C1549   1.397       .  A
C1548      H1553   1.084       .  S
C1549      C1550   1.414       .  A
C1549      O1554   1.372       .  S
C1550      C1551   1.408       .  A
C1551      C1552   1.406       .  A
C1551      H1555   1.083       .  S
C1552      O1556   1.370       .  S
O1554      H1558   0.992       .  S
O1556      H1557   0.991       .  S
C1559      C1560   1.402       .  A
C1559      C1564   1.413       .  A
C1560      C1561   1.399       .  A
C1560      H1565   1.084       .  S
C1561      C1562   1.409       .  A
C1561      O1566   1.372       .  S
C1562      C1563   1.404       .  A
C1563      C1564   1.409       .  A
C1563      H1567   1.083       .  S
C1564      O1568   1.371       .  S
O1566      H1570   0.991       .  S
O1568      H1569   0.991       .  S
C1571      C1572   1.407       .  A
C1571      C1576   1.414       .  A
C1572      C1573   1.406       .  A
C1572      H1577   1.084       .  S
C1573      C1574   1.410       .  A
C1573      O1578   1.371       .  S
C1574      C1575   1.402       .  A
C1575      C1576   1.403       .  A
C1575      H1579   1.084       .  S
C1576      O1580   1.372       .  S
O1578      H1582   0.992       .  S
O1580      H1581   0.991       .  S
C1583      C1584   1.410       .  A
C1583      C1588   1.412       .  A
C1584      C1585   1.409       .  A
C1584      H1589   1.083       .  S
C1585      C1586   1.410       .  A
C1585      O1590   1.371       .  S
C1586      C1587   1.400       .  A
C1587      C1588   1.386       .  A
C1587      H1591   1.084       .  S
C1588      O1592   1.372       .  S
O1590      H1594   0.991       .  S
O1592      H1593   0.992       .  S
C1595      C1596   1.401       .  A
C1595      C1600   1.412       .  A
C1596      C1597   1.399       .  A
C1596      H1601   1.083       .  S
C1597      C1598   1.419       .  A
C1597      O1602   1.372       .  S
C1598      C1599   1.410       .  A
C1599      C1600   1.405       .  A
C1599      H1603   1.083       .  S
C1600      O1604   1.371       .  S
O1602      H1606   0.992       .  S
O1604      H1605   0.992       .  S
C1607      C1608   1.404       .  A
C1607      C1612   1.413       .  A
C1608      C1609   1.401       .  A
C1608      H1613   1.083       .  S
C1609      C1610   1.414       .  A
C1609      O1614   1.372       .  S
C1610      C1611   1.404       .  A
C1611      C1612   1.401       .  A
C1611      H1615   1.084       .  S
C1612      O1616   1.373       .  S
O1614      H1618   0.992       .  S
O1616      H1617   0.992       .  S
C1619      C1620   1.401       .  A
C1619      C1624   1.404       .  A
C1620      C1621   1.405       .  A
C1620      H1625   1.084       .  S
C1621      C1622   1.413       .  A
C1621      O1626   1.374       .  S
C1622      C1623   1.406       .  A
C1623      C1624   1.394       .  A
C1623      H1627   1.083       .  S
C1624      O1628   1.373       .  S
O1626      H1630   0.993       .  S
O1628      H1629   0.992       .  S
C1631      C1870   1.404       .  A
C1631      C1636   1.412       .  A
C1631      C1671   1.487       .  S
C1632      C1869   1.404   1_554  A
C1632      C1871   1.400       .  A
C1632      H1637   1.084       .  S
C1633      C1870   1.398       .  A
C1633      C1634   1.414       .  A
C1633      O1876   1.371       .  S
C1634      C1635   1.405       .  A
C1635      C1636   1.401       .  A
C1635      H1639   1.084       .  S
C1636      O1640   1.372       .  S
O1638      C1871   1.371       .  S
O1638      H1642   0.992       .  S
O1640      H1641   0.992       .  S
C1643      C1644   1.400       .  A
C1643      C1648   1.409       .  A
C1644      C1645   1.401       .  A
C1644      H1649   1.083       .  S
C1645      C1646   1.412       .  A
C1645      O1650   1.372       .  S
C1646      C1885   1.405       .  A
C1646      C1669   1.487       .  S
C1647      C1884   1.405   1_554  A
C1647      C1886   1.403       .  A
C1647      H1651   1.084       .  S
C1648      C1885   1.402       .  A
C1648      O1890   1.372       .  S
O1650      H1654   0.993       .  S
O1652      C1886   1.372       .  S
O1652      H1653   0.992       .  S
C1655      C1894   1.406       .  A
C1655      C1660   1.414       .  A
C1655      C1667   1.488       .  S
C1656      C1893   1.405   1_554  A
C1656      C1895   1.403       .  A
C1656      H1661   1.084       .  S
C1657      C1894   1.401       .  A
C1657      C1658   1.405       .  A
C1657      O1900   1.370       .  S
C1658      C1659   1.401       .  A
C1659      C1660   1.398       .  A
C1659      H1663   1.084       .  S
C1660      O1664   1.372       .  S
O1662      C1895   1.368       .  S
O1662      H1666   0.991       .  S
O1664      H1665   0.992       .  S
C1667      C1668   1.406       .  A
C1667      C1672   1.403       .  A
C1668      C1669   1.405       .  A
C1668      H1673   1.083       .  S
C1669      C1670   1.407       .  A
C1670      C1671   1.406       .  A
C1670      H1674   1.083       .  S
C1671      C1672   1.405       .  A
C1672      H1675   1.083       .  S
C1676      C1677   1.405       .  A
C1676      C1681   1.401       .  A
C1676      C1860   1.487       .  S
C1677      C1678   1.408       .  A
C1677      H1682   1.080       .  S
C1678      C1679   1.411       .  A
C1678      C1836   1.503       .  S
C1679      C1680   1.404       .  A
C1679      H1683   1.081       .  S
C1680      C1681   1.397       .  A
C1680      C1845   1.481       .  S
C1681      H1684   1.082       .  S
C1685      C1686   1.405       .  A
C1685      C1690   1.413       .  A
C1685      C1812   1.486       .  S
C1686      C1687   1.404       .  A
C1686      H1691   1.084       .  S
C1687      C1688   1.404       .  A
C1687      C1821   1.489       .  S
C1688      C1689   1.395       .  A
C1688      H1692   1.084       .  S
C1689      C1690   1.407       .  A
C1689      C1800   1.481       .  S
C1690      H1693   1.083       .  S
C1694      C1695   1.411       .  A
C1694      C1699   1.404       .  A
C1694      C1773   1.496       .  S
C1695      C1696   1.411       .  A
C1695      H1700   1.080       .  S
C1696      C1697   1.407       .  A
C1696      C1788   1.500       .  S
C1697      C1698   1.404       .  A
C1697      H1701   1.082       .  S
C1698      C1699   1.400       .  A
C1698      C1761   1.483       .  S
C1699      H1702   1.083       .  S
O1703      C1711   1.273       .  A
O1704      C1712   1.294       .  A
O1704     Co1724   2.092       .  S
O1705      C1713   1.253       .  A
O1706     Co1726   1.968       .  S
O1707      C1713   1.264       .  A
O1707     Co1724   2.025       .  S
O1708     Co1723   2.022       .  S
O1709      C1712   1.271       .  A
O1710      C1711   1.260       .  A
O1710     Co1725   1.952       .  S
C1711      C1824   1.474       .  S
C1712      C1809   1.490       .  S
C1713      C1881   1.476       .  S
C1714      C1758   1.455       .  S
O1715      C1728   1.254       .  A
O1715     Co1723   1.967       .  S
O1716     Co1724   1.962   1_545  S
O1717      C1730   1.273       .  A
O1718      C1731   1.298       .  A
O1718     Co1726   2.110       .  S
O1719      C1731   1.264       .  A
O1720      C1730   1.257       .  A
O1720     Co1723   1.961       .  S
O1721      C1728   1.268       .  A
O1722     Co1725   2.041       .  S
Co1724     O1727   2.000       .  S
C1728      C1797   1.479       .  S
C1729      C1743   1.472   1_665  S
C1730      C1896   1.474       .  S
C1731      C1872   1.486       .  S
O1732      C1740   1.270   1_545  A
O1733      C1741   1.257       .  A
O1733     Co1753   1.985       .  S
O1734      C1742   1.295       .  A
O1735     Co1755   2.024   1_455  S
O1736      C1742   1.273       .  A
O1736     Co1753   1.897       .  S
O1737     Co1752   1.978       .  S
O1738      C1741   1.265   1_545  A
O1739      C1740   1.300       .  A
O1739     Co1754   2.076       .  S
C1740      C1785   1.485       .  S
C1741      C1776   1.476       .  S
C1742      C1848   1.475       .  S
O1744      C1757   1.268       .  A
O1744     Co1752   2.017       .  S
O1745      C1758   1.241       .  A
O1745     Co1753   1.949       .  S
O1746      C1759   1.252       .  A
O1747      C1760   1.264       .  A
O1747     Co1755   1.972       .  S
O1748      C1760   1.275       .  A
O1749      C1759   1.246       .  A
O1749     Co1752   1.963       .  S
O1750      C1757   1.257       .  A
O1751     Co1754   2.006       .  S
Co1753     O1756   1.927   1_665  S
C1757      C1764   1.464       .  S
C1759      C1857   1.462       .  S
C1760      C1833   1.485       .  S
C1761      C1762   1.407       .  A
C1761      C1766   1.409       .  A
C1762      C1763   1.399       .  A
C1762      H1767   1.084       .  S
C1763      C1764   1.403       .  A
C1763      O1768   1.372       .  S
C1764      C1765   1.402       .  A
C1765      C1766   1.400       .  A
C1765      H1769   1.084       .  S
C1766      O1770   1.372       .  S
O1768      H1772   0.992       .  S
O1770      H1771   0.991       .  S
C1773      C1774   1.413       .  A
C1773      C1778   1.413       .  A
C1774      C1775   1.403       .  A
C1774      H1779   1.083       .  S
C1775      C1776   1.403       .  A
C1775      O1780   1.370       .  S
C1776      C1777   1.402       .  A
C1777      C1778   1.397       .  A
C1777      H1781   1.082       .  S
C1778      O1782   1.373       .  S
O1780      H1784   0.992       .  S
O1782      H1783   0.992       .  S
C1785      C1786   1.402       .  A
C1785      C1790   1.411       .  A
C1786      C1787   1.399       .  A
C1786      H1791   1.084       .  S
C1787      C1788   1.417       .  A
C1787      O1792   1.371       .  S
C1788      C1789   1.409       .  A
C1789      C1790   1.403       .  A
C1789      H1793   1.083       .  S
C1790      O1794   1.370       .  S
O1792      H1796   0.992       .  S
O1794      H1795   0.991       .  S
C1797      C1798   1.402       .  A
C1797      C1802   1.414       .  A
C1798      C1799   1.399       .  A
C1798      H1803   1.084       .  S
C1799      C1800   1.408       .  A
C1799      O1804   1.372       .  S
C1800      C1801   1.404       .  A
C1801      C1802   1.408       .  A
C1801      H1805   1.083       .  S
C1802      O1806   1.372       .  S
O1804      H1808   0.992       .  S
O1806      H1807   0.991       .  S
C1809      C1810   1.406       .  A
C1809      C1814   1.416       .  A
C1810      C1811   1.405       .  A
C1810      H1815   1.084       .  S
C1811      C1812   1.411       .  A
C1811      O1816   1.372       .  S
C1812      C1813   1.400       .  A
C1813      C1814   1.403       .  A
C1813      H1817   1.084       .  S
C1814      O1818   1.373       .  S
O1816      H1820   0.992       .  S
O1818      H1819   0.993       .  S
C1821      C1822   1.411       .  A
C1821      C1826   1.414       .  A
C1822      C1823   1.406       .  A
C1822      H1827   1.083       .  S
C1823      C1824   1.409       .  A
C1823      O1828   1.371       .  S
C1824      C1825   1.400       .  A
C1825      C1826   1.385       .  A
C1825      H1829   1.084       .  S
C1826      O1830   1.372       .  S
O1828      H1832   0.991       .  S
O1830      H1831   0.992       .  S
C1833      C1834   1.401       .  A
C1833      C1838   1.412       .  A
C1834      C1835   1.399       .  A
C1834      H1839   1.083       .  S
C1835      C1836   1.420       .  A
C1835      O1840   1.372       .  S
C1836      C1837   1.409       .  A
C1837      C1838   1.400       .  A
C1837      H1841   1.082       .  S
C1838      O1842   1.372       .  S
O1840      H1844   0.993       .  S
O1842      H1843   0.992       .  S
C1845      C1846   1.403       .  A
C1845      C1850   1.410       .  A
C1846      C1847   1.398       .  A
C1846      H1851   1.084       .  S
C1847      C1848   1.411       .  A
C1847      O1852   1.373       .  S
C1848      C1849   1.403       .  A
C1849      C1850   1.399       .  A
C1849      H1853   1.084       .  S
C1850      O1854   1.373       .  S
O1852      H1856   0.992       .  S
O1854      H1855   0.992       .  S
C1857      C1858   1.400       .  A
C1857      C1862   1.402       .  A
C1858      C1859   1.404       .  A
C1858      H1863   1.084       .  S
C1859      C1860   1.413       .  A
C1859      O1864   1.374       .  S
C1860      C1861   1.408       .  A
C1861      C1862   1.392       .  A
C1861      H1865   1.082       .  S
C1862      O1866   1.373       .  S
O1864      H1868   0.992       .  S
O1866      H1867   0.992       .  S
C1869      C1874   1.412       .  A
C1870      H1875   1.084       .  S
C1871      C1872   1.414   1_554  A
C1872      C1873   1.405       .  A
C1873      C1874   1.401       .  A
C1873      H1877   1.084       .  S
C1874      O1878   1.372       .  S
O1876      H1880   0.992       .  S
O1878      H1879   0.992       .  S
C1881      C1882   1.401       .  A
C1881      C1886   1.409   1_556  A
C1882      C1883   1.403       .  A
C1882      H1887   1.083       .  S
C1883      C1884   1.412       .  A
C1883      O1888   1.372       .  S
C1885      H1889   1.084       .  S
O1888      H1892   0.992       .  S
O1890      H1891   0.992       .  S
C1893      C1898   1.414       .  A
C1894      H1899   1.083       .  S
C1895      C1896   1.406   1_554  A
C1896      C1897   1.401       .  A
C1897      C1898   1.398       .  A
C1897      H1901   1.084       .  S
C1898      O1902   1.372       .  S
O1900      H1904   0.992       .  S
O1902      H1903   0.992       .  S
