geometry optimzed in LAMMPS
_audit_creation_date              2020-12-01 
_audit_creation_method            'lammps2cif' 
_symmetry_space_group_name_H-M    'P1' 
_symmetry_Int_Tables_number       1 
_symmetry_cell_setting            triclinic 
loop_ 
_symmetry_equiv_pos_as_xyz 
  x,y,z 
_cell_length_a                    41.2454241 
_cell_length_b                    41.37230731598497 
_cell_length_c                    46.5918428943277 
_cell_angle_alpha                 90.39075159186264 
_cell_angle_beta                  89.76120051115726 
_cell_angle_gamma                 122.45006117085923 
loop_ 
_atom_site_label 
_atom_site_type_symbol 
_atom_site_fract_x 
_atom_site_fract_y 
_atom_site_fract_z 
_atom_site_charge 
C1          C  0.35334977  0.15067556  0.98322469     0.80200
N2          N  0.31441065  0.13100023  0.98298663    -0.78100
C3          C  0.29540761  0.14930403  0.98524848     0.82700
N4          N  0.31585063  0.18810792  0.98767417    -0.78000
C5          C  0.35494714  0.20838544  0.98791291     0.82800
N6          N  0.37343016  0.18941899  0.98546270    -0.79700
C7          C  0.34770917  0.14456215  0.11042659     0.80200
N8          N  0.36641517  0.18332578  0.11096978    -0.78100
C9          C  0.34688154  0.20115389  0.10886363     0.82700
N10         N  0.30798215  0.17965204  0.10629560    -0.78000
C11         C  0.28877526  0.14075396  0.10580131     0.82800
N12         N  0.30885894  0.12350457  0.10814453    -0.79700
C13         C  0.13897728  0.35772071  0.36008205     0.80200
N14         N  0.17788672  0.37717609  0.36002081    -0.78100
C15         C  0.19644726  0.35837649  0.35830365     0.82700
N16         N  0.17584417  0.31948931  0.35719607    -0.78000
C17         C  0.13676215  0.29958400  0.35762290     0.82800
N18         N  0.11869630  0.31894701  0.35909515    -0.79700
C19         C  0.13511491  0.35548104  0.23446783     0.80200
N20         N  0.17403811  0.37722593  0.23543243    -0.78100
C21         C  0.19497739  0.36082618  0.23651585     0.82700
N22         N  0.17669146  0.32200526  0.23636844    -0.78000
C23         C  0.13770701  0.29986315  0.23509528     0.82800
N24         N  0.11723529  0.31680879  0.23402529    -0.79700
C25         C  0.06524791  0.44106710  0.38248617     0.42500
N26         N  0.02080464  0.45269734  0.38808108     0.01400
C27         C  0.04462575  0.12829364  0.41537159    -0.06500
H28         H  0.10229049  0.08542748  0.49340041     0.06800
C29         C  0.46371494  0.47048016  0.01276230    -0.06900
Co30       Co  0.05351608  0.03665106  0.39170609     0.74200
N31         N  0.07527967  0.06181321  0.45254166    -0.26000
Co32       Co  0.02314173  0.05854460  0.45397938     0.74100
C33         C  0.49610199  0.49723987  0.03066162     0.42600
N34         N  0.43772914  0.42074909  0.44791652     0.01000
N35         N  0.00425748  0.02083909  0.48855402     0.01100
N36         N  0.06562357  0.11358978  0.37536622    -0.46900
H37         H  0.11243997  0.50564123  0.38527554     0.06800
N38         N  0.08688947  0.05325538  0.42889771     0.01400
N39         N  0.47081868  0.05477696  0.45451083     0.01100
C40         C  0.42719651  0.06781845  0.45822213     0.42700
N41         N  0.45018916  0.41254762  0.42456029    -0.25500
C42         C  0.02492262  0.03556873  0.32949809    -0.06400
N43         N  0.02674536  0.42458409  0.38398218    -0.46600
N44         N  0.46556852  0.08347199  0.45784092    -0.46800
C45         C  0.49192607  0.00802313  0.31222369     0.42500
N46         N  0.05269492  0.08617776  0.39479738     0.01400
N47         N  0.41597358  0.44505834  0.38997034    -0.25500
N48         N  0.05308302  0.48657765  0.38909264    -0.26000
N49         N  0.40458520  0.45428277  0.41334628     0.01000
H50         H  0.38959483  0.42213952  0.34893894     0.06900
H51         H  0.37910441  0.00349869  0.45586257     0.06900
N52         N  0.04084455  0.09432710  0.41850402    -0.26100
N53         N  0.47123969  0.48756739  0.48716033    -0.25700
N54         N  0.48608577  0.48536276  0.35435044     0.01400
C55         C  0.13424218  0.07383878  0.45807559     0.42800
C56         C  0.44644796  0.37861941  0.42813179    -0.06900
N57         N  0.43824989  0.02119553  0.45303170    -0.25700
H58         H  0.43775065  0.44379786  0.01850046     0.06900
N59         N  0.12206559  0.06018061  0.43123769    -0.46900
H60         H  0.45278048  0.36369662  0.41214184     0.06900
C61         C  0.35768778  0.43476662  0.38382434     0.42600
C62         C  0.08274879  0.48228209  0.38598098    -0.06400
Co63       Co  0.46800426  0.44820315  0.38889030     0.73800
N64         N  0.42457926  0.39351719  0.46752962    -0.46600
C65         C  0.06091648  0.14084807  0.38674549     0.42900
N66         N  0.46933708  0.47748770  0.32891094    -0.46600
Co67       Co  0.43727714  0.47060034  0.45063232     0.73900
C68         C  0.40901995  0.02637121  0.45520422    -0.06900
C69         C  0.10322168  0.07501281  0.47226117    -0.06500
N70         N  0.01874908  0.01901342  0.35527252    -0.26000
N71         N  0.01989148  0.02801760  0.01441668    -0.46800
H72         H  0.03858180  0.14311964  0.43164991     0.06900
C73         C  0.38838038  0.43252794  0.36999573    -0.06900
Cl74       Cl  0.49553029  0.00347887  0.42133221    -0.49900
C75         C  0.42976294  0.36629431  0.45673454     0.42600
H76         H  0.05026889  0.06247377  0.32324462     0.06800
N77         N  0.36989794  0.44831790  0.41067363    -0.46600
C78         C  0.12916371  0.06192845  0.13465650     0.42500
N79         N  0.07519350  0.05563806  0.14384676     0.01400
C80         C  0.46112529  0.47388099  0.26383822    -0.06500
H81         H  0.98839178  0.38309592  0.20915587     0.06800
C82         C  0.41712227  0.39230618  0.12191189    -0.06900
Co83       Co  0.04803881  0.02764933  0.20329243     0.74200
N84         N  0.00762911  0.44248499  0.20399497    -0.26000
Co85       Co  0.45804514  0.44378481  0.20176163     0.74100
C86         C  0.41795328  0.36149129  0.13626811     0.42600
N87         N  0.47392440  0.49076106  0.10442626     0.01000
N88         N  0.44005877  0.40958606  0.16489120     0.01100
N89         N  0.02023264  0.02826768  0.26385720    -0.46900
H90         H  0.13148752  0.03986292  0.17944968     0.06800
N91         N  0.04189332  0.47440885  0.20443098     0.01400
N92         N  0.40913519  0.44642670  0.19905853     0.01100
C93         C  0.35474117  0.43990260  0.20719752     0.42700
N94         N  0.00779936  0.02316463  0.10546043    -0.25500
C95         C  0.06799037  0.10894433  0.22131151    -0.06400
N96         N  0.10231730  0.06770592  0.12402682    -0.46600
N97         N  0.38168544  0.43472679  0.21860245    -0.46800
C98         C  0.06706901  0.13990070  0.20724367     0.42500
N99         N  0.01136110  0.01143868  0.23834691     0.01400
N100        N  0.47632583  0.05886377  0.13962372    -0.25500
N101        N  0.08315532  0.04338188  0.16721831    -0.26000
N102        N  0.44227149  0.02670848  0.13871335     0.01000
H103        H  0.49461486  0.11828566  0.13662794     0.06900
H104        H  0.35327076  0.46121110  0.16190360     0.06900
N105        N  0.47713667  0.47938778  0.23781303    -0.26100
N106        N  0.43149537  0.42088057  0.14126529    -0.25700
N107        N  0.04433703  0.09182699  0.17851515     0.01400
C108        C  0.05311002  0.42997769  0.21047139     0.42800
C109        C  0.02454030  0.02981887  0.07968457    -0.06900
N110        N  0.40132317  0.45799722  0.17525517    -0.25700
H111        H  0.40637404  0.39275269  0.10088296     0.06900
N112        N  0.06984558  0.46824246  0.20845693    -0.46900
H113        H  0.05155312  0.05523701  0.07366417     0.06900
C114        C  0.43014485  0.07074336  0.13483300     0.42600
C115        C  0.11671753  0.04608637  0.16342655    -0.06400
Co116      Co  0.02624604  0.05804223  0.14160873     0.73800
N117        N  0.46591156  0.47483965  0.07855940    -0.46600
C118        C  0.48971133  0.00645307  0.28093792     0.42900
N119        N  0.05218427  0.12719956  0.18078811    -0.46600
Co120      Co  0.43670093  0.47375703  0.13947624     0.73900
C121        C  0.36768674  0.45522086  0.17838619    -0.06900
C122        C  0.01170055  0.41272445  0.20749383    -0.06500
N123        N  0.05340923  0.08051630  0.20183449    -0.26000
N124        N  0.43235607  0.37420449  0.16282755    -0.46800
H125        H  0.43404435  0.44896349  0.27041728     0.06900
C126        C  0.47168124  0.08840901  0.13729130    -0.06900
Cl127      Cl  0.49226004  0.00077101  0.17152664    -0.49900
C128        C  0.49684734  0.49772065  0.06199737     0.42600
H129        H  0.07883306  0.10817216  0.24221096     0.06800
N130        N  0.41389095  0.03249180  0.13575109    -0.46600
C131        C  0.07076171  0.20137552  0.20386364    -0.21300
C132        C  0.08368181  0.17985063  0.21686819    -0.09300
C133        C  0.11374486  0.19773512  0.23708280     0.29500
C134        C  0.13095916  0.23677452  0.24345046    -0.21300
C135        C  0.11805929  0.25822549  0.23015482    -0.09400
C136        C  0.08757518  0.24004402  0.21041061     0.29500
F137        F  0.07538325  0.26009097  0.19610372    -0.19900
H138        H  0.04791308  0.18835802  0.18808830     0.17900
H139        H  0.15463225  0.25036716  0.25852060     0.17900
F140        F  0.12781814  0.17825651  0.24964167    -0.19900
C141        C  0.29201372  0.43489280  0.20662368    -0.21300
C142        C  0.31557810  0.42366091  0.21864737    -0.09300
C143        C  0.30005063  0.39440885  0.23934267     0.29500
C144        C  0.26087029  0.37480970  0.24600795    -0.21300
C145        C  0.23696905  0.38475951  0.23273582    -0.09400
C146        C  0.25312973  0.41579661  0.21358865     0.29500
F147        F  0.23090083  0.42593272  0.19989720    -0.19900
H148        H  0.30334208  0.45767153  0.19097035     0.17300
H149        H  0.24897422  0.35120023  0.26098421     0.17900
F150        F  0.32206802  0.38321716  0.25190874    -0.19900
C151        C  0.05383397  0.37074065  0.21881437    -0.21300
C152        C  0.07369321  0.41085699  0.21763433    -0.09300
C153        C  0.11333051  0.43246004  0.22351928     0.29500
C154        C  0.13262576  0.41417581  0.22984582    -0.21300
C155        C  0.11306488  0.37399061  0.23035340    -0.09400
C156        C  0.07314561  0.35237077  0.22511787     0.29500
F157        F  0.05266373  0.31350312  0.22545059    -0.19900
H158        H  0.02332154  0.35333874  0.21449516     0.17900
H159        H  0.16322970  0.43174953  0.23389014     0.17900
F160        F  0.13374229  0.47132513  0.22300819    -0.19900
C161        C  0.12965052  0.23597315  0.35179840    -0.21300
C162        C  0.11434007  0.25752433  0.36098315    -0.09300
C163        C  0.07907994  0.23896946  0.37592745     0.29500
C164        C  0.06104827  0.20042440  0.38299922    -0.21300
C165        C  0.07735079  0.17949433  0.37509951    -0.09400
C166        C  0.11115845  0.19710684  0.35856343     0.29500
F167        F  0.12774633  0.17759592  0.35064391    -0.19900
H168        H  0.15658312  0.24950868  0.34015502     0.17900
H169        H  0.03483668  0.18720257  0.39554186     0.17900
F170        F  0.06317989  0.25843520  0.38558678    -0.19900
C171        C  0.29315294  0.42366219  0.39210758    -0.21300
C172        C  0.31743133  0.41800589  0.37451298    -0.09300
C173        C  0.30178846  0.39417076  0.35006550     0.29500
C174        C  0.26225469  0.37482087  0.34457195    -0.21300
C175        C  0.23817863  0.37983841  0.36281486    -0.09400
C176        C  0.25401474  0.40489427  0.38636134     0.29500
F177        F  0.23126337  0.40964238  0.40478045    -0.19900
H178        H  0.30426601  0.44190624  0.41095094     0.17900
H179        H  0.25040009  0.35585204  0.32615263     0.17900
F180        F  0.32408276  0.38856913  0.33187706    -0.19900
C181        C  0.14112561  0.41885749  0.36452852    -0.21300
C182        C  0.11932223  0.37864006  0.36419314    -0.09300
C183        C  0.07941831  0.35932450  0.36912973     0.29500
C184        C  0.06228722  0.38000109  0.37493158    -0.21300
C185        C  0.08430631  0.42018113  0.37585849    -0.09400
C186        C  0.12400016  0.43948271  0.37020445     0.29500
F187        F  0.14667901  0.47822134  0.36993554    -0.19900
H188        H  0.17178622  0.43466801  0.36058287     0.17900
H189        H  0.03165270  0.36439204  0.37899554     0.17900
F190        F  0.05680313  0.32052608  0.36889355    -0.19900
C191        C  0.34911170  0.08740013  0.12526244    -0.21300
C192        C  0.36892210  0.12546145  0.11555700    -0.09300
C193        C  0.40910362  0.14528498  0.11225067     0.29500
C194        C  0.42882564  0.12743997  0.11881652    -0.21300
C195        C  0.40902297  0.08954505  0.12867292    -0.09400
C196        C  0.36886568  0.06959133  0.13183937     0.29500
F197        F  0.34867610  0.03314283  0.14185481    -0.19900
H198        H  0.31827768  0.07151127  0.12836618     0.17900
H199        H  0.45964796  0.14329861  0.11580888     0.17900
F200        F  0.42945058  0.18177162  0.10236237    -0.19900
C201        C  0.35038751  0.26321671  0.10377643    -0.21300
C202        C  0.36714231  0.24317890  0.11314638    -0.09300
C203        C  0.40193358  0.26323712  0.12861828     0.29500
C204        C  0.41847839  0.30188758  0.13546037    -0.21300
C205        C  0.40137787  0.32162182  0.12656151    -0.09400
C206        C  0.36744742  0.30218049  0.11020276     0.29500
F207        F  0.34951715  0.32009163  0.10186684    -0.19900
H208        H  0.32362961  0.24852779  0.09191776     0.17900
H209        H  0.44457840  0.31638628  0.14812338     0.17900
F210        F  0.41914199  0.24525280  0.13847886    -0.19900
C211        C  0.22827285  0.08154647  0.12133944    -0.21300
C212        C  0.24635393  0.11749133  0.10789090    -0.09300
C213        C  0.22394021  0.13221994  0.09968010     0.29500
C214        C  0.18492648  0.11262051  0.10682551    -0.21300
C215        C  0.16794142  0.07849766  0.12258717    -0.09400
C216        C  0.18952648  0.06236064  0.12886223     0.29500
F217        F  0.17347644  0.02856419  0.14299765    -0.19900
H218        H  0.24458935  0.06919629  0.12763635     0.17900
H219        H  0.16857834  0.12527624  0.10146736     0.17900
F220        F  0.23991336  0.16611343  0.08568462    -0.19900
C221        C  0.35124344  0.09181863  0.46806065    -0.21300
C222        C  0.37307573  0.13007310  0.47750639    -0.09300
C223        C  0.41323815  0.14804592  0.47989041     0.29500
C224        C  0.43065037  0.12771035  0.47328085    -0.21300
C225        C  0.40852831  0.08930908  0.46409731    -0.09400
C226        C  0.36859708  0.07176792  0.46117701     0.29500
F227        F  0.34599656  0.03549919  0.45104357    -0.19900
H228        H  0.32043106  0.07725099  0.46539552     0.17900
H229        H  0.46150196  0.14199773  0.47558267     0.17900
F230        F  0.43574574  0.18503060  0.48873049    -0.19900
C231        C  0.37923911  0.31062400  0.48473739    -0.21300
C232        C  0.41382075  0.32808240  0.46922959    -0.09300
C233        C  0.43144047  0.30760403  0.46387513     0.29500
C234        C  0.41334664  0.26936946  0.47206058    -0.21300
C235        C  0.37701520  0.25063785  0.48529398    -0.09400
C236        C  0.36072838  0.27207116  0.49258145     0.29500
F237        F  0.32640045  0.25554877  0.50635259    -0.19900
H238        H  0.36548295  0.32619344  0.48940426     0.17900
H239        H  0.42692055  0.25389271  0.46646517     0.17900
F240        F  0.46576413  0.32428333  0.45010027    -0.19900
C241        C  0.19608740  0.07704479  0.45656192    -0.21300
C242        C  0.17436208  0.09110688  0.46774191    -0.09300
C243        C  0.19217741  0.12308096  0.98630526     0.29500
C244        C  0.23137290  0.14133332  0.99257842    -0.21300
C245        C  0.25329709  0.12770795  0.48090176    -0.09400
C246        C  0.23501863  0.09479121  0.46322622     0.29500
F247        F  0.25507531  0.08085850  0.45102113    -0.19900
H248        H  0.18298713  0.05254215  0.44218479     0.17900
H249        H  0.24476904  0.16659132  0.00618927     0.17900
F250        F  0.17247489  0.13816066  0.99710366    -0.19900
C251        C  0.35334922  0.15067488  0.48322585     0.80200
N252        N  0.31441009  0.13099952  0.48298775    -0.78100
C253        C  0.29540705  0.14930335  0.48524975     0.82700
N254        N  0.31585008  0.18810724  0.48767553    -0.78000
C255        C  0.35494659  0.20838479  0.48791422     0.82800
N256        N  0.37342962  0.18941833  0.48546393    -0.79700
C257        C  0.34770875  0.14456173  0.61042550     0.80200
N258        N  0.36641467  0.18332535  0.61096898    -0.78100
C259        C  0.34688100  0.20115342  0.60886292     0.82700
N260        N  0.30798163  0.17965154  0.60629472    -0.78000
C261        C  0.28877481  0.14075347  0.60580017     0.82800
N262        N  0.30885853  0.12350412  0.60814328    -0.79700
C263        C  0.13897741  0.35772095  0.86008170     0.80200
N264        N  0.17788688  0.37717646  0.86002063    -0.78100
C265        C  0.19644755  0.35837695  0.85830384     0.82700
N266        N  0.17584457  0.31948977  0.85719652    -0.78000
C267        C  0.13676256  0.29958437  0.85762325     0.82800
N268        N  0.11869657  0.31894726  0.85909509    -0.79700
C269        C  0.13511446  0.35548068  0.73446767     0.80200
N270        N  0.17403767  0.37722554  0.73543216    -0.78100
C271        C  0.19497690  0.36082574  0.73651556     0.82700
N272        N  0.17669094  0.32200482  0.73636821    -0.78000
C273        C  0.13770648  0.29986273  0.73509513     0.82800
N274        N  0.11723479  0.31680841  0.73402518    -0.79700
C275        C  0.06524731  0.44106666  0.88248574     0.42500
N276        N  0.02080402  0.45269679  0.88808118     0.01400
C277        C  0.04462606  0.12829379  0.91537186    -0.06500
H278        H  0.10229098  0.08542731  0.99340028     0.06800
C279        C  0.46371444  0.47047976  0.51276229    -0.06900
Co280      Co  0.05351641  0.03665133  0.89170593     0.74200
N281        N  0.07528003  0.06181327  0.95254151    -0.26000
Co282      Co  0.02314208  0.05854468  0.95397942     0.74100
C283        C  0.49610153  0.49723946  0.53066158     0.42600
N284        N  0.43772996  0.42074971  0.94791645     0.01000
N285        N  0.00425796  0.02083913  0.98855402     0.01100
N286        N  0.06562385  0.11359014  0.87536636    -0.46900
H287        H  0.11243926  0.50564087  0.88527506     0.06800
N288        N  0.08688977  0.05325552  0.92889749     0.01400
N289        N  0.47081848  0.05477677  0.95451061     0.01100
C290        C  0.42719617  0.06781811  0.95822157     0.42700
N291        N  0.45019000  0.41254833  0.92456019    -0.25500
C292        C  0.02492281  0.03556893  0.82949791    -0.06400
N293        N  0.02674476  0.42458360  0.88398194    -0.46600
N294        N  0.46556819  0.08347174  0.95784040    -0.46800
C295        C  0.49192613  0.00802320  0.81222378     0.42500
N296        N  0.05269513  0.08617797  0.89479739     0.01400
N297        N  0.41597401  0.44505871  0.88997038    -0.25500
N298        N  0.05308239  0.48657711  0.88909276    -0.26000
N299        N  0.40458563  0.45428310  0.91334634     0.01000
H300        H  0.38959510  0.42213970  0.84893904     0.06900
H301        H  0.37910432  0.00349810  0.95586199     0.06900
N302        N  0.04084479  0.09432720  0.91850411    -0.26100
N303        N  0.47124022  0.48756780  0.98716034    -0.25700
N304        N  0.48608616  0.48536325  0.85435037     0.01400
C305        C  0.13424247  0.07383862  0.95807530     0.42800
C306        C  0.44644917  0.37862030  0.92813168    -0.06900
N307        N  0.43824976  0.02119530  0.95303154    -0.25700
H308        H  0.43775016  0.44379746  0.51850045     0.06900
N309        N  0.12206585  0.06018062  0.93123738    -0.46900
H310        H  0.45278181  0.36369761  0.91214173     0.06900
C311        C  0.35768804  0.43476666  0.88382453     0.42600
C312        C  0.08274815  0.48228163  0.88598078    -0.06400
Co313      Co  0.46800482  0.44820371  0.88889023     0.73800
N314        N  0.42458038  0.39351789  0.96752957    -0.46600
C315        C  0.06091683  0.14084841  0.88674580     0.42900
N316        N  0.46933741  0.47748809  0.82891090    -0.46600
Co317      Co  0.43727765  0.47060076  0.95063234     0.73900
C318        C  0.40901976  0.02637084  0.95520384    -0.06900
C319        C  0.10322207  0.07501270  0.97226098    -0.06500
N320        N  0.01874935  0.01901370  0.85527237    -0.26000
N321        N  0.01989100  0.02801758  0.51441669    -0.46800
H322        H  0.03858221  0.14311971  0.93165031     0.06900
C323        C  0.38838070  0.43252813  0.86999584    -0.06900
Cl324      Cl  0.49553014  0.00347873  0.92133224    -0.49900
C325        C  0.42976435  0.36629523  0.95673446     0.42600
H326        H  0.05026908  0.06247394  0.82324438     0.06800
N327        N  0.36989828  0.44831804  0.91067379    -0.46600
C328        C  0.12916356  0.06192798  0.63465619     0.42500
N329        N  0.07519341  0.05563757  0.64384668     0.01400
C330        C  0.46112537  0.47388105  0.76383820    -0.06500
H331        H  0.98839169  0.38309611  0.70915599     0.06800
C332        C  0.41712190  0.39230571  0.62191197    -0.06900
Co333      Co  0.04803893  0.02764885  0.70329237     0.74200
N334        N  0.00762911  0.44248519  0.70399506    -0.26000
Co335      Co  0.45804498  0.44378452  0.70176167     0.74100
C336        C  0.41795271  0.36149073  0.63626824     0.42600
N337        N  0.47392421  0.49076067  0.60442625     0.01000
N338        N  0.44005848  0.40958564  0.66489127     0.01100
N339        N  0.02023279  0.02826741  0.76385706    -0.46900
H340        H  0.13148764  0.03986245  0.67944931     0.06800
N341        N  0.04189332  0.47440905  0.70443117     0.01400
N342        N  0.40913499  0.44642642  0.69905854     0.01100
C343        C  0.35474079  0.43990209  0.70719729     0.42700
N344        N  0.00779919  0.02316432  0.60546050    -0.25500
C345        C  0.06799067  0.10894396  0.72131154    -0.06400
N346        N  0.10231709  0.06770543  0.62402665    -0.46600
N347        N  0.38168507  0.43472636  0.71860235    -0.46800
C348        C  0.06706912  0.13990027  0.70724376     0.42500
N349        N  0.01136125  0.01143824  0.73834684     0.01400
N350        N  0.47632597  0.05886413  0.63962365    -0.25500
N351        N  0.08315535  0.04338138  0.66721817    -0.26000
N352        N  0.44227165  0.02670881  0.63871333     0.01000
H353        H  0.49461485  0.11828596  0.63662754     0.06900
H354        H  0.35327064  0.46121060  0.66190331     0.06900
N355        N  0.47713667  0.47938766  0.73781300    -0.26100
N356        N  0.43149513  0.42088017  0.64126534    -0.25700
N357        N  0.04433717  0.09182658  0.67851523     0.01400
C358        C  0.05310993  0.42997784  0.71047169     0.42800
C359        C  0.02454002  0.02981868  0.57968458    -0.06900
N360        N  0.40132306  0.45799695  0.67525514    -0.25700
H361        H  0.40637366  0.39275224  0.60088306     0.06900
N362        N  0.06984554  0.46824262  0.70845725    -0.46900
H363        H  0.05155280  0.05523685  0.57366416     0.06900
C364        C  0.43014484  0.07074353  0.63483263     0.42600
C365        C  0.11671755  0.04608589  0.66342627    -0.06400
Co366      Co  0.02624602  0.05804182  0.64160884     0.73800
N367        N  0.46591127  0.47483924  0.57855939    -0.46600
C368        C  0.48971147  0.00645329  0.78093800     0.42900
N369        N  0.05218430  0.12719912  0.68078823    -0.46600
Co370      Co  0.43670079  0.47375672  0.63947624     0.73900
C371        C  0.36768656  0.45522045  0.67838601    -0.06900
C372        C  0.01170049  0.41272463  0.70749397    -0.06500
N373        N  0.05340948  0.08051591  0.70183452    -0.26000
N374        N  0.43235559  0.37420399  0.66282767    -0.46800
H375        H  0.43404441  0.44896363  0.77041734     0.06900
C376        C  0.47168127  0.08840931  0.63729103    -0.06900
Cl377      Cl  0.49226024  0.00077143  0.67152667    -0.49900
C378        C  0.49684700  0.49772021  0.56199732     0.42600
H379        H  0.07883343  0.10817185  0.74221098     0.06800
N380        N  0.41389106  0.03249201  0.63575089    -0.46600
C381        C  0.07076052  0.20137452  0.70386447    -0.21300
C382        C  0.08368163  0.17985012  0.71686836    -0.09300
C383        C  0.11374539  0.19773503  0.73708236     0.29500
C384        C  0.13095951  0.23677442  0.74344995    -0.21300
C385        C  0.11805872  0.25822498  0.73015490    -0.09400
C386        C  0.08757375  0.24004301  0.71041143     0.29500
F387        F  0.07538072  0.26008944  0.69610516    -0.19900
H388        H  0.04791126  0.18835664  0.68808963     0.17900
H389        H  0.15463322  0.25036740  0.75851955     0.17900
F390        F  0.12781957  0.17825686  0.74964059    -0.19900
C391        C  0.29201294  0.43489147  0.70662256    -0.21300
C392        C  0.31557761  0.42366039  0.71864698    -0.09300
C393        C  0.30005035  0.39440912  0.73934292     0.29500
C394        C  0.26086998  0.37480997  0.74600819    -0.21300
C395        C  0.23696853  0.38475900  0.73273537    -0.09400
C396        C  0.25312894  0.41579524  0.71358745     0.29500
F397        F  0.23089976  0.42593040  0.69989525    -0.19900
H398        H  0.30334108  0.45766958  0.69096871     0.17300
H399        H  0.24897407  0.35120113  0.76098502     0.17900
F400        F  0.32206799  0.38321826  0.75190973    -0.19900
C401        C  0.05383388  0.37074061  0.71881351    -0.21300
C402        C  0.07369299  0.41085701  0.71763462    -0.09300
C403        C  0.11333001  0.43245993  0.72352063     0.29500
C404        C  0.13262515  0.41417554  0.72984701    -0.21300
C405        C  0.11306444  0.37399031  0.73035339    -0.09400
C406        C  0.07314541  0.35237057  0.72511685     0.29500
F407        F  0.05266370  0.31350290  0.72544832    -0.19900
H408        H  0.02332167  0.35333879  0.71449344     0.17900
H409        H  0.16322889  0.43174916  0.73389218     0.17900
F410        F  0.13374158  0.47132505  0.72301077    -0.19900
C411        C  0.12965053  0.23597340  0.85179841    -0.21300
C412        C  0.11434059  0.25752480  0.86098379    -0.09300
C413        C  0.07908106  0.23897027  0.87592884     0.29500
C414        C  0.06104931  0.20042517  0.88300051    -0.21300
C415        C  0.07735123  0.17949479  0.87510003    -0.09400
C416        C  0.11115840  0.19710707  0.85856337     0.29500
F417        F  0.12774572  0.17759588  0.85064313    -0.19900
H418        H  0.15658271  0.24950876  0.84015449     0.17900
H419        H  0.03483814  0.18720357  0.89554363     0.17900
F420        F  0.06318177  0.25843638  0.88558896    -0.19900
C421        C  0.29315343  0.42366301  0.89210748    -0.21300
C422        C  0.31743160  0.41800605  0.87451316    -0.09300
C423        C  0.30178855  0.39417046  0.85006593     0.29500
C424        C  0.26225482  0.37482079  0.84457236    -0.21300
C425        C  0.23817895  0.37983899  0.86281497    -0.09400
C426        C  0.25401524  0.40489533  0.88636119     0.29500
F427        F  0.23126405  0.40964409  0.90478002    -0.19900
H428        H  0.30426665  0.44190742  0.91095065     0.17900
H429        H  0.25040008  0.35585155  0.82615327     0.17900
F430        F  0.32408262  0.38856807  0.83187782    -0.19900
C431        C  0.14112558  0.41885756  0.86452898    -0.21300
C432        C  0.11932213  0.37864015  0.86419238    -0.09300
C433        C  0.07941787  0.35932443  0.86912749     0.29500
C434        C  0.06228657  0.38000084  0.87492934    -0.21300
C435        C  0.08430578  0.42018084  0.87585770    -0.09400
C436        C  0.12399995  0.43948258  0.87020490     0.29500
F437        F  0.14667904  0.47822121  0.86993743    -0.19900
H438        H  0.17178646  0.43466823  0.86058445     0.17900
H439        H  0.03165178  0.36439166  0.87899221     0.17900
F440        F  0.05680255  0.32052600  0.86888985    -0.19900
C441        C  0.34911133  0.08739958  0.62526098    -0.21300
C442        C  0.36892174  0.12546107  0.61555592    -0.09300
C443        C  0.40910334  0.14528489  0.61225008     0.29500
C444        C  0.42882546  0.12744004  0.61881614    -0.21300
C445        C  0.40902281  0.08954499  0.62867224    -0.09400
C446        C  0.36886540  0.06959093  0.63183809     0.29500
F447        F  0.34867577  0.03314222  0.64185312    -0.19900
H448        H  0.31827723  0.07151048  0.62836430     0.17900
H449        H  0.45964785  0.14329894  0.61580892     0.17900
F450        F  0.42945032  0.18177168  0.60236211    -0.19900
C451        C  0.35038731  0.26321644  0.60377578    -0.21300
C452        C  0.36714169  0.24317837  0.61314605    -0.09300
C453        C  0.40193246  0.26323624  0.62861858     0.29500
C454        C  0.41847725  0.30188664  0.63546089    -0.21300
C455        C  0.40137721  0.32162120  0.62656163    -0.09400
C456        C  0.36744721  0.30218017  0.61020233     0.29500
F457        F  0.34951736  0.32009156  0.60186598    -0.19900
H458        H  0.32362979  0.24852776  0.59191665     0.17900
H459        H  0.44457688  0.31638507  0.64812433     0.17900
F460        F  0.41914039  0.24525162  0.63847952    -0.19900
C461        C  0.22827254  0.08154592  0.62133840    -0.21300
C462        C  0.24635349  0.11749077  0.60788984    -0.09300
C463        C  0.22393969  0.13221939  0.59967928     0.29500
C464        C  0.18492605  0.11261999  0.60682495    -0.21300
C465        C  0.16794116  0.07849718  0.62258666    -0.09400
C466        C  0.18952627  0.06236015  0.62886148     0.29500
F467        F  0.17347639  0.02856376  0.64299697    -0.19900
H468        H  0.24458910  0.06919573  0.62763513     0.17900
H469        H  0.16857786  0.12527572  0.60146698     0.17900
F470        F  0.23991271  0.16611288  0.58568382    -0.19900
C471        C  0.35124295  0.09181744  0.96806381    -0.21300
C472        C  0.37307619  0.13007363  0.97750554    -0.09300
C473        C  0.41323917  0.14804770  0.97988573     0.29500
C474        C  0.43065099  0.12771173  0.97327634    -0.21300
C475        C  0.40852801  0.08930882  0.96409668    -0.09400
C476        C  0.36859612  0.07176632  0.96118026     0.29500
F477        F  0.34599416  0.03549563  0.95105096    -0.19900
H478        H  0.32042999  0.07724856  0.96540183     0.17900
H479        H  0.46150309  0.14200022  0.97557508     0.17900
F480        F  0.43574780  0.18503414  0.98872162    -0.19900
C481        C  0.37923990  0.31062466  0.98473653    -0.21300
C482        C  0.41382194  0.32808322  0.96922926    -0.09300
C483        C  0.43144171  0.30760490  0.96387490     0.29500
C484        C  0.41334759  0.26937020  0.97206001    -0.21300
C485        C  0.37701581  0.25063847  0.98529291    -0.09400
C486        C  0.36072888  0.27207170  0.99258022     0.29500
F487        F  0.32640056  0.25554915  0.00635081    -0.19900
H488        H  0.36548367  0.32619407  0.98940324     0.17900
H489        H  0.42692158  0.25389348  0.96646473     0.17900
F490        F  0.46576568  0.32428437  0.95010047    -0.19900
C491        C  0.19608758  0.07704442  0.95656181    -0.21300
C492        C  0.17436245  0.09110692  0.96774142    -0.09300
C493        C  0.19217679  0.12308024  0.48630643     0.29500
C494        C  0.23137220  0.14133234  0.49257988    -0.21300
C495        C  0.25329762  0.12770852  0.98090070    -0.09400
C496        C  0.23501891  0.09479109  0.96322585     0.29500
F497        F  0.25507539  0.08085787  0.95102122    -0.19900
H498        H  0.18298707  0.05254125  0.94218520     0.17900
H499        H  0.24476816  0.16658983  0.50619125     0.17900
F500        F  0.17247414  0.13815956  0.49710527    -0.19900
C501        C  0.35334902  0.65067522  0.98322477     0.80200
N502        N  0.31440988  0.63099988  0.98298655    -0.78100
C503        C  0.29540676  0.64930354  0.98524882     0.82700
N504        N  0.31584963  0.68810730  0.98767522    -0.78000
C505        C  0.35494612  0.70838493  0.98791416     0.82800
N506        N  0.37342929  0.68941863  0.98546342    -0.79700
C507        C  0.34770814  0.64456242  0.11042413     0.80200
N508        N  0.36641422  0.68332606  0.11096902    -0.78100
C509        C  0.34688081  0.70115442  0.10886293     0.82700
N510        N  0.30798163  0.67965287  0.10629334    -0.78000
C511        C  0.28877465  0.64075483  0.10579747     0.82800
N512        N  0.30885806  0.62350513  0.10814057    -0.79700
C513        C  0.13897827  0.85772196  0.36008106     0.80200
N514        N  0.17788776  0.87717756  0.36002013    -0.78100
C515        C  0.19644851  0.85837814  0.35830269     0.82700
N516        N  0.17584559  0.81949097  0.35719469    -0.78000
C517        C  0.13676357  0.79958546  0.35762126     0.82800
N518        N  0.11869753  0.81894828  0.35909369    -0.79700
C519        C  0.13511351  0.85547987  0.23446824     0.80200
N520        N  0.17403671  0.87722450  0.23543284    -0.78100
C521        C  0.19497578  0.86082455  0.23651626     0.82700
N522        N  0.17668963  0.82200359  0.23636879    -0.78000
C523        C  0.13770512  0.79986171  0.23509563     0.82800
N524        N  0.11723366  0.81680762  0.23402572    -0.79700
C525        C  0.06524752  0.94106668  0.38248755     0.42500
N526        N  0.02080415  0.95269668  0.38808347     0.01400
C527        C  0.04462615  0.62829437  0.41536842    -0.06500
H528        H  0.10229107  0.58542857  0.49339740     0.06800
C529        C  0.46371266  0.97047865  0.01276494    -0.06900
Co530      Co  0.05351645  0.53665170  0.39170320     0.74200
N531        N  0.07528049  0.56181457  0.45253858    -0.26000
Co532      Co  0.02314240  0.55854563  0.45397652     0.74100
C533        C  0.49609986  0.99723762  0.03066447     0.42600
N534        N  0.43772901  0.92074957  0.44791857     0.01000
N535        N  0.00425907  0.52084063  0.48855149     0.01100
N536        N  0.06562420  0.61359050  0.37536317    -0.46900
H537        H  0.11243946  0.00564076  0.38527753     0.06800
N538        N  0.08689025  0.55325664  0.42889466     0.01400
N539        N  0.47081785  0.55477660  0.45450738     0.01100
C540        C  0.42719455  0.56781667  0.45821964     0.42700
N541        N  0.45018963  0.91254832  0.42456255    -0.25500
C542        C  0.02492225  0.53556828  0.32949524    -0.06400
N543        N  0.02674494  0.92458356  0.38398381    -0.46600
N544        N  0.46556677  0.58347104  0.45783730    -0.46800
C545        C  0.49192466  0.50802125  0.31222081     0.42500
N546        N  0.05269515  0.58617834  0.39479426     0.01400
N547        N  0.41597433  0.94505919  0.38997241    -0.25500
N548        N  0.05308252  0.98657697  0.38909524    -0.26000
N549        N  0.40458571  0.95428369  0.41334819     0.01000
H550        H  0.38959582  0.92213980  0.34894105     0.06900
H551        H  0.37910408  0.50349575  0.45586073     0.06900
N552        N  0.04084470  0.59432772  0.41850087    -0.26100
N553        N  0.47123878  0.98756675  0.48716309    -0.25700
N554        N  0.48608696  0.98536399  0.35435311     0.01400
C555        C  0.13424294  0.57384004  0.45807260     0.42800
C556        C  0.44644919  0.87862051  0.42813436    -0.06900
N557        N  0.43824953  0.52119476  0.45302911    -0.25700
H558        H  0.43774803  0.94379652  0.01850286     0.06900
N559        N  0.12206637  0.56018182  0.43123469    -0.46900
H560        H  0.45278249  0.86369795  0.41214475     0.06900
C561        C  0.35768843  0.93476716  0.38382598     0.42600
C562        C  0.08274831  0.98228155  0.38598307    -0.06400
Co563      Co  0.46800503  0.94820392  0.38889267     0.73800
N564        N  0.42457942  0.89351790  0.46753178    -0.46600
C565        C  0.06091722  0.64084888  0.38674240     0.42900
N566        N  0.46933836  0.97748939  0.32891362    -0.46600
Co567      Co  0.43727699  0.97060071  0.45063460     0.73900
C568        C  0.40901905  0.52636940  0.45520218    -0.06900
C569        C  0.10322243  0.57501411  0.47225811    -0.06500
N570        N  0.01874895  0.51901345  0.35526984    -0.26000
N571        N  0.01989224  0.52801956  0.01441398    -0.46800
H572        H  0.03858246  0.64312052  0.43164677     0.06900
C573        C  0.38838124  0.93252854  0.36999766    -0.06900
Cl574      Cl  0.49552985  0.50347862  0.42132938    -0.49900
C575        C  0.42976400  0.86629552  0.45673704     0.42600
H576        H  0.05026851  0.56247316  0.32324148     0.06800
N577        N  0.36989838  0.94831859  0.41067529    -0.46600
C578        C  0.12916401  0.56193141  0.13465375     0.42500
N579        N  0.07519357  0.55564010  0.14384459     0.01400
C580        C  0.46112602  0.97388303  0.26384140    -0.06500
H581        H  0.98838989  0.88309530  0.20915826     0.06800
C582        C  0.41712038  0.89230565  0.12191595    -0.06900
Co583      Co  0.04803894  0.52764952  0.20328995     0.74200
N584        N  0.00762766  0.94248462  0.20399805    -0.26000
Co585      Co  0.45804454  0.94378512  0.20176534     0.74100
C586        C  0.41795051  0.86149040  0.13627235     0.42600
N587        N  0.47392347  0.99075956  0.10442932     0.01000
N588        N  0.44005697  0.90958550  0.16489526     0.01100
N589        N  0.02023223  0.52826662  0.26385463    -0.46900
H590        H  0.13148834  0.53986494  0.17944643     0.06800
N591        N  0.04189205  0.97440825  0.20443391     0.01400
N592        N  0.40913513  0.94642803  0.19906227     0.01100
C593        C  0.35474102  0.93990408  0.20720087     0.42700
N594        N  0.00779971  0.52316620  0.10545808    -0.25500
C595        C  0.06798832  0.60894317  0.22131038    -0.06400
N596        N  0.10231729  0.56770869  0.12402452    -0.46600
N597        N  0.38168513  0.93472815  0.21860601    -0.46800
C598        C  0.06706602  0.63989941  0.20724329     0.42500
N599        N  0.01136103  0.51143770  0.23834433     0.01400
N600        N  0.47632435  0.55886359  0.13962145    -0.25500
N601        N  0.08315568  0.54338353  0.16721580    -0.26000
N602        N  0.44227035  0.52670795  0.13871041     0.01000
H603        H  0.49461248  0.61828521  0.13662622     0.06900
H604        H  0.35327115  0.96121237  0.16190674     0.06900
N605        N  0.47713715  0.97938902  0.23781620    -0.26100
N606        N  0.43149391  0.92088014  0.14126925    -0.25700
N607        N  0.04433540  0.59182675  0.17851383     0.01400
C608        C  0.05310833  0.92997668  0.21047344     0.42800
C609        C  0.02454090  0.52982122  0.07968224    -0.06900
N610        N  0.40132339  0.95799857  0.17525880    -0.25700
H611        H  0.40637257  0.89275248  0.10088693     0.06900
N612        N  0.06984413  0.96824147  0.20845916    -0.46900
H613        H  0.05155345  0.55523981  0.07366203     0.06900
C614        C  0.43014276  0.57074222  0.13483009     0.42600
C615        C  0.11671812  0.54608863  0.16342367    -0.06400
Co616      Co  0.02624538  0.55804295  0.14160688     0.73800
N617        N  0.46590978  0.97483790  0.07856251    -0.46600
C618        C  0.48971011  0.50645103  0.28093503     0.42900
N619        N  0.05218162  0.62719891  0.18078754    -0.46600
Co620      Co  0.43670071  0.97375705  0.13947967     0.73900
C621        C  0.36768704  0.95522241  0.17838960    -0.06900
C622        C  0.01169880  0.91272381  0.20749649    -0.06500
N623        N  0.05340802  0.58051584  0.20183283    -0.26000
N624        N  0.43235350  0.87420363  0.16283178    -0.46800
H625        H  0.43404491  0.94896592  0.27042069     0.06900
C626        C  0.47167915  0.58840844  0.13728918    -0.06900
Cl627      Cl  0.49225996  0.50077135  0.17152364    -0.49900
C628        C  0.49684555  0.99771810  0.06200022     0.42600
H629        H  0.07883101  0.60817065  0.24220974     0.06800
N630        N  0.41388943  0.53249068  0.13574774    -0.46600
C631        C  0.07075779  0.70137388  0.20386489    -0.21300
C632        C  0.08367871  0.67984908  0.21686837    -0.09300
C633        C  0.11374269  0.69773355  0.23708224     0.29500
C634        C  0.13095736  0.73677295  0.24345000    -0.21300
C635        C  0.11805692  0.75822397  0.23015524    -0.09400
C636        C  0.08757161  0.74004239  0.21041199     0.29500
F637        F  0.07537881  0.76008924  0.19610603    -0.19900
H638        H  0.04790835  0.68835633  0.18809020     0.17900
H639        H  0.15463123  0.75036558  0.25851947     0.17900
F640        F  0.12781662  0.67825495  0.24964014    -0.19900
C641        C  0.29201253  0.93489205  0.20662513    -0.21300
C642        C  0.31557733  0.92366135  0.21864989    -0.09300
C643        C  0.30004968  0.89440929  0.23934522     0.29500
C644        C  0.26086896  0.87480915  0.24600958    -0.21300
C645        C  0.23696750  0.88475794  0.23273645    -0.09400
C646        C  0.25312818  0.91579479  0.21358907     0.29500
F647        F  0.23089903  0.92592971  0.19989650    -0.19900
H648        H  0.30334089  0.95767068  0.19097172     0.17300
H649        H  0.24897288  0.85119990  0.26098604     0.17900
F650        F  0.32206739  0.88321873  0.25191234    -0.19900
C651        C  0.05383178  0.87073971  0.21881858    -0.21300
C652        C  0.07369171  0.91085591  0.21763545    -0.09300
C653        C  0.11333004  0.93245895  0.22351661     0.29500
C654        C  0.13262541  0.91417482  0.22984286    -0.21300
C655        C  0.11306371  0.87398967  0.23035380    -0.09400
C656        C  0.07314362  0.85236989  0.22512172     0.29500
F657        F  0.05266095  0.81350230  0.22545784    -0.19900
H658        H  0.02331858  0.85333782  0.21450235     0.17900
H659        H  0.16323007  0.93174855  0.23388424     0.17900
F660        F  0.13374275  0.97132394  0.22300191    -0.19900
C661        C  0.12965229  0.73597469  0.35179642    -0.21300
C662        C  0.11434158  0.75752569  0.36098111    -0.09300
C663        C  0.07908110  0.73897047  0.37592494     0.29500
C664        C  0.06104923  0.70042526  0.38299625    -0.21300
C665        C  0.07735191  0.67949533  0.37509662    -0.09400
C666        C  0.11116003  0.69710819  0.35856102     0.29500
F667        F  0.12774807  0.67759741  0.35064157    -0.19900
H668        H  0.15658518  0.74951048  0.34015342     0.17900
H669        H  0.03483733  0.68720319  0.39553852     0.17900
F670        F  0.06318082  0.75843596  0.38558432    -0.19900
C671        C  0.29315267  0.92366031  0.39210981    -0.21300
C672        C  0.31743207  0.91800662  0.37451425    -0.09300
C673        C  0.30179038  0.89417457  0.35006511     0.29500
C674        C  0.26225678  0.87482503  0.34457078    -0.21300
C675        C  0.23817975  0.87983995  0.36281461    -0.09400
C676        C  0.25401468  0.90489280  0.38636282     0.29500
F677        F  0.23126232  0.90963830  0.40478274    -0.19900
H678        H  0.30426473  0.94190199  0.41095443     0.17900
H679        H  0.25040308  0.85585856  0.32615013     0.17900
F680        F  0.32408570  0.88857588  0.33187556    -0.19900
C681        C  0.14112564  0.91885833  0.36452760    -0.21300
C682        C  0.11932277  0.87864090  0.36419239    -0.09300
C683        C  0.07941888  0.85932493  0.36912937     0.29500
C684        C  0.06228745  0.88000108  0.37493181    -0.21300
C685        C  0.08430611  0.92018111  0.37585881    -0.09400
C686        C  0.12399981  0.93948312  0.37020393     0.29500
F687        F  0.14667813  0.97822177  0.36993450    -0.19900
H688        H  0.17178616  0.93466915  0.36058146     0.17900
H689        H  0.03165301  0.86439170  0.37899622     0.17900
F690        F  0.05680404  0.82052649  0.36889302    -0.19900
C691        C  0.34910961  0.58739899  0.12525793    -0.21300
C692        C  0.36892063  0.62546115  0.11555424    -0.09300
C693        C  0.40910232  0.64528494  0.11224929     0.29500
C694        C  0.42882395  0.62743948  0.11881489    -0.21300
C695        C  0.40902078  0.58954380  0.12866973    -0.09400
C696        C  0.36886324  0.56958968  0.13183461     0.29500
F697        F  0.34867306  0.53314032  0.14184831    -0.19900
H698        H  0.31827539  0.57150984  0.12836051     0.17900
H699        H  0.45964646  0.64329851  0.11580837     0.17900
F700        F  0.42944992  0.68177236  0.10236262    -0.19900
C701        C  0.35038842  0.76321796  0.10377574    -0.21300
C702        C  0.36714121  0.74317905  0.11314751    -0.09300
C703        C  0.40192974  0.76323559  0.12862281     0.29500
C704        C  0.41847391  0.80188562  0.13546619    -0.21300
C705        C  0.40137548  0.82162109  0.12656530    -0.09400
C706        C  0.36744773  0.80218132  0.11020336     0.29500
F707        F  0.34951939  0.82009349  0.10186521    -0.19900
H708        H  0.32363259  0.74853024  0.09191448     0.17900
H709        H  0.44457182  0.81638303  0.14813160     0.17900
F710        F  0.41913586  0.74524993  0.13848532    -0.19900
C711        C  0.22827178  0.58154719  0.12133444    -0.21300
C712        C  0.24635328  0.61749235  0.10788635    -0.09300
C713        C  0.22394001  0.63222171  0.09967610     0.29500
C714        C  0.18492646  0.61262292  0.10682205    -0.21300
C715        C  0.16794121  0.57849998  0.12258363    -0.09400
C716        C  0.18952565  0.56236202  0.12885774     0.29500
F717        F  0.17347529  0.52856535  0.14299288    -0.19900
H718        H  0.24458790  0.56919639  0.12763084     0.17900
H719        H  0.16857870  0.62527926  0.10146449     0.17900
F720        F  0.23991355  0.66611540  0.08568085    -0.19900
C721        C  0.35124012  0.59181260  0.46807476    -0.21300
C722        C  0.37307593  0.63007363  0.47750529    -0.09300
C723        C  0.41324053  0.64805133  0.47987435     0.29500
C724        C  0.43065143  0.62771451  0.47326477    -0.21300
C725        C  0.40852610  0.58930709  0.46409576    -0.09400
C726        C  0.36859217  0.57176053  0.46119093     0.29500
F727        F  0.34598620  0.53548429  0.45107336    -0.19900
H728        H  0.32042546  0.57723999  0.46542204     0.17900
H729        H  0.46150501  0.64200637  0.47555445     0.17900
F730        F  0.43575203  0.68504259  0.48869864    -0.19900
C731        C  0.37923771  0.81062403  0.48473700    -0.21300
C732        C  0.41382143  0.82808363  0.46923188    -0.09300
C733        C  0.43144278  0.80760641  0.46387951     0.29500
C734        C  0.41334856  0.76937155  0.47206422    -0.21300
C735        C  0.37701516  0.75063866  0.48529467    -0.09400
C736        C  0.36072664  0.77207097  0.49258028     0.29500
F737        F  0.32639662  0.75554741  0.50634852    -0.19900
H738        H  0.36548026  0.82619267  0.48940216     0.17900
H739        H  0.42692387  0.75389565  0.46647041     0.17900
F740        F  0.46576835  0.82428712  0.45010726    -0.19900
C741        C  0.19608853  0.57704670  0.45655852    -0.21300
C742        C  0.17436274  0.59110791  0.46773916    -0.09300
C743        C  0.19217623  0.62307933  0.98630579     0.29500
C744        C  0.23137145  0.64133107  0.99257979    -0.21300
C745        C  0.25329747  0.62770872  0.48089978    -0.09400
C746        C  0.23501965  0.59479299  0.46322319     0.29500
F747        F  0.25507690  0.58086126  0.45101750    -0.19900
H748        H  0.18298874  0.55254487  0.44218061     0.17900
H749        H  0.24476679  0.66658710  0.00619270     0.17900
F750        F  0.17247301  0.63815719  0.99710621    -0.19900
C751        C  0.35334956  0.65067584  0.48322423     0.80200
N752        N  0.31441044  0.63100052  0.48298602    -0.78100
C753        C  0.29540728  0.64930413  0.48524820     0.82700
N754        N  0.31585014  0.68810789  0.48767459    -0.78000
C755        C  0.35494663  0.70838550  0.48791362     0.82800
N756        N  0.37342981  0.68941922  0.48546291    -0.79700
C757        C  0.34770864  0.64456295  0.61042473     0.80200
N758        N  0.36641479  0.68332660  0.61096946    -0.78100
C759        C  0.34688140  0.70115499  0.60886337     0.82700
N760        N  0.30798220  0.67965348  0.60629394    -0.78000
C761        C  0.28877516  0.64075544  0.60579823     0.82800
N762        N  0.30885853  0.62350570  0.60814133    -0.79700
C763        C  0.13897825  0.85772166  0.86008126     0.80200
N764        N  0.17788773  0.87717714  0.86002032    -0.78100
C765        C  0.19644835  0.85837761  0.85830262     0.82700
N766        N  0.17584533  0.81949046  0.85719436    -0.78000
C767        C  0.13676330  0.79958504  0.85762089     0.82800
N768        N  0.11869739  0.81894798  0.85909359    -0.79700
C769        C  0.13511403  0.85548002  0.73446890     0.80200
N770        N  0.17403721  0.87722482  0.73543360    -0.78100
C771        C  0.19497647  0.86082505  0.73651688     0.82700
N772        N  0.17669049  0.82200409  0.73636917    -0.78000
C773        C  0.13770600  0.79986207  0.73509593     0.82800
N774        N  0.11723437  0.81680780  0.73402615    -0.79700
C775        C  0.06524801  0.94106694  0.88248768     0.42500
N776        N  0.02080465  0.95269702  0.88808325     0.01400
C777        C  0.04462573  0.62829408  0.91536807    -0.06500
H778        H  0.10229057  0.58542886  0.99339731     0.06800
C779        C  0.46371282  0.97047878  0.51276499    -0.06900
Co780      Co  0.05351594  0.53665124  0.89170325     0.74200
N781        N  0.07527999  0.56181441  0.95253858    -0.26000
Co782      Co  0.02314187  0.55854539  0.95397635     0.74100
C783        C  0.49610006  0.99723772  0.53066452     0.42600
N784        N  0.43772870  0.92074927  0.94791862     0.01000
N785        N  0.00425842  0.52084046  0.98855139     0.01100
N786        N  0.06562383  0.61359001  0.87536296    -0.46900
H787        H  0.11244004  0.00564096  0.88527772     0.06800
N788        N  0.08688977  0.55325635  0.92889474     0.01400
N789        N  0.47081821  0.55477697  0.95450756     0.01100
C790        C  0.42719495  0.56781704  0.95822005     0.42700
N791        N  0.45018932  0.91254800  0.92456260    -0.25500
C792        C  0.02492181  0.53556789  0.82949534    -0.06400
N793        N  0.02674544  0.92458386  0.88398384    -0.46600
N794        N  0.46556715  0.58347142  0.95783769    -0.46800
C795        C  0.49192492  0.50802157  0.81222070     0.42500
N796        N  0.05269474  0.58617795  0.89479413     0.01400
N797        N  0.41597421  0.94505903  0.88997239    -0.25500
N798        N  0.05308302  0.98657731  0.88909499    -0.26000
N799        N  0.40458557  0.95428350  0.91334816     0.01000
H800        H  0.38959573  0.92213964  0.84894102     0.06900
H801        H  0.37910433  0.50349631  0.95586119     0.06900
N802        N  0.04084426  0.59432743  0.91850066    -0.26100
N803        N  0.47123860  0.98756663  0.98716305    -0.25700
N804        N  0.48608691  0.98536391  0.85435316     0.01400
C805        C  0.13424258  0.57384027  0.95807266     0.42800
C806        C  0.44644864  0.87862005  0.92813439    -0.06900
N807        N  0.43824986  0.52119513  0.95302925    -0.25700
H808        H  0.43774814  0.94379670  0.51850292     0.06900
N809        N  0.12206597  0.56018176  0.93123480    -0.46900
H810        H  0.45278184  0.86369744  0.91214477     0.06900
C811        C  0.35768830  0.93476697  0.88382595     0.42600
C812        C  0.08274883  0.98228184  0.88598303    -0.06400
Co813      Co  0.46800488  0.94820375  0.88889271     0.73800
N814        N  0.42457887  0.89351750  0.96753179    -0.46600
C815        C  0.06091685  0.64084846  0.88674205     0.42900
N816        N  0.46933837  0.97748940  0.82891365    -0.46600
Co817      Co  0.43727682  0.97060051  0.95063457     0.73900
C818        C  0.40901938  0.52636980  0.95520246    -0.06900
C819        C  0.10322198  0.57501425  0.97225810    -0.06500
N820        N  0.01874849  0.51901296  0.85526990    -0.26000
N821        N  0.01989288  0.52801968  0.51441409    -0.46800
H822        H  0.03858201  0.64312032  0.93164633     0.06900
C823        C  0.38838114  0.93252840  0.86999763    -0.06900
Cl824      Cl  0.49553031  0.50347912  0.92132933    -0.49900
C825        C  0.42976326  0.86629499  0.95673704     0.42600
H826        H  0.05026805  0.56247283  0.82324165     0.06800
N827        N  0.36989824  0.94831838  0.91067526    -0.46600
C828        C  0.12916429  0.56193188  0.63465412     0.42500
N829        N  0.07519372  0.55564040  0.64384477     0.01400
C830        C  0.46112620  0.97388331  0.76384143    -0.06500
H831        H  0.98838994  0.88309482  0.70915850     0.06800
C832        C  0.41712069  0.89230615  0.62191599    -0.06900
Co833      Co  0.04803888  0.52764971  0.70329009     0.74200
N834        N  0.00762769  0.94248410  0.70399802    -0.26000
Co835      Co  0.45804479  0.94378558  0.70176537     0.74100
C836        C  0.41795095  0.86149096  0.63627237     0.42600
N837        N  0.47392363  0.99075990  0.60442935     0.01000
N838        N  0.44005721  0.90958598  0.66489532     0.01100
N839        N  0.02023195  0.52826663  0.76385476    -0.46900
H840        H  0.13148840  0.53986531  0.67944681     0.06800
N841        N  0.04189209  0.97440774  0.70443382     0.01400
N842        N  0.40913546  0.94642856  0.69906237     0.01100
C843        C  0.35474157  0.93990489  0.70720128     0.42700
N844        N  0.00779995  0.52316642  0.60545812    -0.25500
C845        C  0.06798834  0.60894338  0.72131043    -0.06400
N846        N  0.10231758  0.56770911  0.62402480    -0.46600
N847        N  0.38168569  0.93472888  0.71860626    -0.46800
C848        C  0.06706627  0.63989972  0.70724329     0.42500
N849        N  0.01136085  0.51143783  0.73834442     0.01400
N850        N  0.47632435  0.55886334  0.63962141    -0.25500
N851        N  0.08315573  0.54338379  0.66721601    -0.26000
N852        N  0.44227030  0.52670774  0.63871039     0.01000
H853        H  0.49461266  0.61828501  0.63662626     0.06900
H854        H  0.35327133  0.96121307  0.66190720     0.06900
N855        N  0.47713737  0.97938941  0.73781624    -0.26100
N856        N  0.43149411  0.92088059  0.64126932    -0.25700
N857        N  0.04433538  0.59182696  0.67851389     0.01400
C858        C  0.05310838  0.92997621  0.71047361     0.42800
C859        C  0.02454129  0.52982139  0.57968234    -0.06900
N860        N  0.40132360  0.95799906  0.67525893    -0.25700
H861        H  0.40637293  0.89275298  0.60088695     0.06900
N862        N  0.06984415  0.96824098  0.70845919    -0.46900
H863        H  0.05155389  0.55523995  0.57366217     0.06900
C864        C  0.43014290  0.57074217  0.63483018     0.42600
C865        C  0.11671824  0.54608898  0.66342399    -0.06400
Co866      Co  0.02624549  0.55804319  0.64160692     0.73800
N867        N  0.46590993  0.97483816  0.57856257    -0.46600
C868        C  0.48971027  0.50645117  0.78093492     0.42900
N869        N  0.05218182  0.62719920  0.68078755    -0.46600
Co870      Co  0.43670087  0.97375745  0.63947973     0.73900
C871        C  0.36768733  0.95522306  0.67838993    -0.06900
C872        C  0.01169885  0.91272331  0.70749661    -0.06500
N873        N  0.05340792  0.58051601  0.70183292    -0.26000
N874        N  0.43235388  0.87420417  0.66283181    -0.46800
H875        H  0.43404510  0.94896617  0.77042068     0.06900
C876        C  0.47167927  0.58840826  0.63728920    -0.06900
Cl877      Cl  0.49225986  0.50077103  0.67152360    -0.49900
C878        C  0.49684572  0.99771829  0.56200026     0.42600
H879        H  0.07883106  0.60817084  0.74220978     0.06800
N880        N  0.41388945  0.53249060  0.63574780    -0.46600
C881        C  0.07075908  0.70137465  0.70386444    -0.21300
C882        C  0.08367935  0.67984950  0.71686826    -0.09300
C883        C  0.11374301  0.69773368  0.73708241     0.29500
C884        C  0.13095787  0.73677310  0.74345023    -0.21300
C885        C  0.11805795  0.75822441  0.73015522    -0.09400
C886        C  0.08757312  0.74004318  0.71041156     0.29500
F887        F  0.07538097  0.76009037  0.69610530    -0.19900
H888        H  0.04790994  0.68835736  0.68808950     0.17900
H889        H  0.15463141  0.75036550  0.75852000     0.17900
F890        F  0.12781640  0.67825477  0.74964061    -0.19900
C891        C  0.29201342  0.93489361  0.70662653    -0.21300
C892        C  0.31557801  0.92366218  0.71865053    -0.09300
C893        C  0.30005026  0.89440941  0.73934528     0.29500
C894        C  0.26086957  0.87480921  0.74600970    -0.21300
C895        C  0.23696824  0.88475867  0.73273725    -0.09400
C896        C  0.25312910  0.91579635  0.71359061     0.29500
F897        F  0.23090015  0.92593216  0.69989884    -0.19900
H898        H  0.30334194  0.95767282  0.69097360     0.17300
H899        H  0.24897339  0.85119936  0.76098561     0.17900
F900        F  0.32206779  0.88321813  0.75191168    -0.19900
C901        C  0.05383202  0.87073937  0.71881906    -0.21300
C902        C  0.07369181  0.91085556  0.71763588    -0.09300
C903        C  0.11333009  0.93245874  0.72351722     0.29500
C904        C  0.13262557  0.91417476  0.72984360    -0.21300
C905        C  0.11306405  0.87398963  0.73035450    -0.09400
C906        C  0.07314397  0.85236970  0.72512233     0.29500
F907        F  0.05266144  0.81350212  0.72545848    -0.19900
H908        H  0.02331884  0.85333739  0.71450273     0.17900
H909        H  0.16323020  0.93174861  0.73388507     0.17900
F910        F  0.13374268  0.97132373  0.72300255    -0.19900
C911        C  0.12965247  0.73597439  0.85179651    -0.21300
C912        C  0.11434121  0.75752517  0.86098050    -0.09300
C913        C  0.07908015  0.73896966  0.87592358     0.29500
C914        C  0.06104833  0.70042448  0.88299498    -0.21300
C915        C  0.07735159  0.67949483  0.87509613    -0.09400
C916        C  0.11116026  0.69710792  0.85856119     0.29500
F917        F  0.12774891  0.67759742  0.85064257    -0.19900
H918        H  0.15658580  0.74951034  0.84015407     0.17900
H919        H  0.03483599  0.68720220  0.89553675     0.17900
F920        F  0.06317918  0.75843481  0.88558219    -0.19900
C921        C  0.29315228  0.92365924  0.89211016    -0.21300
C922        C  0.31743189  0.91800621  0.87451429    -0.09300
C923        C  0.30179036  0.89417458  0.85006492     0.29500
C924        C  0.26225674  0.87482490  0.84457060    -0.21300
C925        C  0.23817955  0.87983925  0.86281469    -0.09400
C926        C  0.25401429  0.90489154  0.88636321     0.29500
F927        F  0.23126174  0.90963635  0.90478342    -0.19900
H928        H  0.30426419  0.94190053  0.91095498     0.17900
H929        H  0.25040318  0.85585884  0.82614972     0.17900
F930        F  0.32408588  0.88857653  0.83187510    -0.19900
C931        C  0.14112559  0.91885817  0.86452654    -0.21300
C932        C  0.11932290  0.87864072  0.86419283    -0.09300
C933        C  0.07941937  0.85932487  0.86913144     0.29500
C934        C  0.06228811  0.88000118  0.87493386    -0.21300
C935        C  0.08430655  0.92018125  0.87585921    -0.09400
C936        C  0.12399988  0.93948313  0.87020282     0.29500
F937        F  0.14667783  0.97822178  0.86993164    -0.19900
H938        H  0.17178580  0.93466887  0.86057909     0.17900
H939        H  0.03165397  0.86439189  0.87899952     0.17900
F940        F  0.05680475  0.82052643  0.86889679    -0.19900
C941        C  0.34911000  0.58739940  0.62525839    -0.21300
C942        C  0.36892109  0.62546161  0.61555478    -0.09300
C943        C  0.40910278  0.64528531  0.61224981     0.29500
C944        C  0.42882430  0.62743968  0.61881526    -0.21300
C945        C  0.40902104  0.58954394  0.62866998    -0.09400
C946        C  0.36886352  0.56958996  0.63183494     0.29500
F947        F  0.34867327  0.53314058  0.64184860    -0.19900
H948        H  0.31827578  0.57151032  0.62836100     0.17900
H949        H  0.45964681  0.64329864  0.61580872     0.17900
F950        F  0.42945048  0.68177280  0.60236328    -0.19900
C951        C  0.35038906  0.76321850  0.60377585    -0.21300
C952        C  0.36714185  0.74317964  0.61314775    -0.09300
C953        C  0.40193038  0.76323626  0.62862304     0.29500
C954        C  0.41847452  0.80188631  0.63546629    -0.21300
C955        C  0.40137606  0.82162170  0.62656532    -0.09400
C956        C  0.36744833  0.80218187  0.61020337     0.29500
F957        F  0.34951996  0.82009398  0.60186513    -0.19900
H958        H  0.32363322  0.74853070  0.59191459     0.17900
H959        H  0.44457242  0.81638378  0.64813172     0.17900
F960        F  0.41913647  0.74525065  0.63848568    -0.19900
C961        C  0.22827223  0.58154786  0.62133523    -0.21300
C962        C  0.24635378  0.61749303  0.60788715    -0.09300
C963        C  0.22394055  0.63222240  0.59967685     0.29500
C964        C  0.18492694  0.61262357  0.60682267    -0.21300
C965        C  0.16794160  0.57850056  0.62258417    -0.09400
C966        C  0.18952604  0.56236264  0.62885838     0.29500
F967        F  0.17347561  0.52856591  0.64299345    -0.19900
H968        H  0.24458832  0.56919706  0.62763168     0.17900
H969        H  0.16857919  0.62527990  0.60146505     0.17900
F970        F  0.23991413  0.66611613  0.58568164    -0.19900
C971        C  0.35124056  0.59181365  0.96807147    -0.21300
C972        C  0.37307546  0.63007313  0.97750566    -0.09300
C973        C  0.41323954  0.64804968  0.97987835     0.29500
C974        C  0.43065083  0.62771325  0.97326871    -0.21300
C975        C  0.40852638  0.58930733  0.96409615    -0.09400
C976        C  0.36859307  0.57176196  0.96118767     0.29500
F977        F  0.34598847  0.53548749  0.95106633    -0.19900
H978        H  0.32042643  0.57724219  0.96541578     0.17900
H979        H  0.46150394  0.64200409  0.97556131     0.17900
F980        F  0.43575004  0.68503932  0.98870653    -0.19900
C981        C  0.37923705  0.81062349  0.98473720    -0.21300
C982        C  0.41382069  0.82808307  0.96923196    -0.09300
C983        C  0.43144207  0.80760585  0.96387965     0.29500
C984        C  0.41334794  0.76937103  0.97206450    -0.21300
C985        C  0.37701462  0.75063813  0.98529507    -0.09400
C986        C  0.36072609  0.77207047  0.99258063     0.29500
F987        F  0.32639617  0.75554695  0.00634902    -0.19900
H988        H  0.36547959  0.82619212  0.98940235     0.17900
H989        H  0.42692328  0.75389514  0.96647073     0.17900
F990        F  0.46576762  0.82428655  0.95010739    -0.19900
C991        C  0.19608838  0.57704736  0.95655797    -0.21300
C992        C  0.17436236  0.59110794  0.96773932    -0.09300
C993        C  0.19217687  0.62308019  0.48630475     0.29500
C994        C  0.23137214  0.64133217  0.49257857    -0.21300
C995        C  0.25329697  0.62770825  0.98090028    -0.09400
C996        C  0.23501943  0.59479342  0.96322278     0.29500
F997        F  0.25507694  0.58086247  0.95101631    -0.19900
H998        H  0.18298884  0.55254624  0.94217939     0.17900
H999        H  0.24476766  0.66658887  0.50619079     0.17900
F1000       F  0.17247382  0.63815864  0.49710440    -0.19900
C1001       C  0.85334942  0.15067523  0.98322694     0.80200
N1002       N  0.81441030  0.13099992  0.98298864    -0.78100
C1003       C  0.79540726  0.14930376  0.98525011     0.82700
N1004       N  0.81585025  0.18810765  0.98767565    -0.78000
C1005       C  0.85494676  0.20838519  0.98791458     0.82800
N1006       N  0.87342983  0.18941872  0.98546473    -0.79700
C1007       C  0.84770897  0.14456215  0.11042537     0.80200
N1008       N  0.86641492  0.18332576  0.11096904    -0.78100
C1009       C  0.84688130  0.20115390  0.10886310     0.82700
N1010       N  0.80798194  0.17965209  0.10629483    -0.78000
C1011       C  0.78877509  0.14075402  0.10580010     0.82800
N1012       N  0.80885876  0.12350461  0.10814308    -0.79700
C1013       C  0.63897763  0.35772080  0.36008150     0.80200
N1014       N  0.67788711  0.37717641  0.36002046    -0.78100
C1015       C  0.69644788  0.35837700  0.35830367     0.82700
N1016       N  0.67584499  0.31948981  0.35719629    -0.78000
C1017       C  0.63676297  0.29958432  0.35762296     0.82800
N1018       N  0.61869689  0.31894712  0.35909481    -0.79700
C1019       C  0.63511429  0.35548057  0.23446735     0.80200
N1020       N  0.67403751  0.37722542  0.23543188    -0.78100
C1021       C  0.69497671  0.36082560  0.23651541     0.82700
N1022       N  0.67669071  0.32200468  0.23636814    -0.78000
C1023       C  0.63770627  0.29986262  0.23509502     0.82800
N1024       N  0.61723460  0.31680831  0.23402496    -0.79700
C1025       C  0.56524722  0.44106624  0.38248546     0.42500
N1026       N  0.52080391  0.45269638  0.38808075     0.01400
C1027       C  0.54462660  0.12829386  0.41537176    -0.06500
H1028       H  0.60229118  0.08542723  0.49340024     0.06800
C1029       C  0.96371433  0.47047994  0.01276274    -0.06900
Co1030     Co  0.55351664  0.03665121  0.39170591     0.74200
N1031       N  0.57528021  0.06181309  0.45254150    -0.26000
Co1032     Co  0.52314235  0.05854468  0.45397936     0.74100
C1033       C  0.99610144  0.49723961  0.03066204     0.42600
N1034       N  0.93773001  0.42074987  0.44791685     0.01000
N1035       N  0.50425808  0.02083915  0.48855397     0.01100
N1036       N  0.56562436  0.11359010  0.37536630    -0.46900
H1037       H  0.61243919  0.50564041  0.38527484     0.06800
N1038       N  0.58688995  0.05325531  0.42889749     0.01400
N1039       N  0.97081807  0.05477667  0.45451069     0.01100
C1040       C  0.92719573  0.06781793  0.45822207     0.42700
N1041       N  0.95019009  0.41254852  0.42456059    -0.25500
C1042       C  0.52492318  0.03556901  0.32949790    -0.06400
N1043       N  0.52674466  0.42458317  0.38398160    -0.46600
N1044       N  0.96556776  0.08347160  0.45784069    -0.46800
C1045       C  0.99192557  0.00802283  0.31222385     0.42500
N1046       N  0.55269556  0.08617794  0.39479735     0.01400
N1047       N  0.91597419  0.44505902  0.38997082    -0.25500
N1048       N  0.55308229  0.48657670  0.38909233    -0.26000
N1049       N  0.90458572  0.45428330  0.41334678     0.01000
H1050       H  0.88959549  0.42214021  0.34893941     0.06900
H1051       H  0.87910398  0.00349783  0.45586242     0.06900
N1052       N  0.54084522  0.09432723  0.41850405    -0.26100
N1053       N  0.97124023  0.48756777  0.48716086    -0.25700
N1054       N  0.98608633  0.48536365  0.35435089     0.01400
C1055       C  0.63424267  0.07383848  0.45807529     0.42800
C1056       C  0.94644926  0.37862049  0.42813209    -0.06900
N1057       N  0.93824937  0.02119520  0.45303164    -0.25700
H1058       H  0.93775005  0.44379763  0.01850090     0.06900
N1059       N  0.62206604  0.06018044  0.43123738    -0.46900
H1060       H  0.95278194  0.36369781  0.41214215     0.06900
C1061       C  0.85768826  0.43476697  0.38382487     0.42600
C1062       C  0.58274805  0.48228120  0.38598046    -0.06400
Co1063     Co  0.96800496  0.44820402  0.38889068     0.73800
N1064       N  0.92458042  0.39351805  0.46752996    -0.46600
C1065       C  0.56091741  0.14084843  0.38674570     0.42900
N1066       N  0.96933761  0.47748850  0.32891141    -0.46600
Co1067     Co  0.93727770  0.47060086  0.45063282     0.73900
C1068       C  0.90901935  0.02637067  0.45520418    -0.06900
C1069       C  0.60322225  0.07501255  0.47226096    -0.06500
N1070       N  0.51874964  0.01901371  0.35527234    -0.26000
N1071       N  0.51989132  0.02801754  0.01441663    -0.46800
H1072       H  0.53858277  0.14311984  0.43165017     0.06900
C1073       C  0.88838097  0.43252853  0.36999621    -0.06900
Cl1074     Cl  0.99552972  0.00347865  0.42133234    -0.49900
C1075       C  0.92976441  0.36629541  0.45673486     0.42600
H1076       H  0.55026950  0.06247400  0.32324440     0.06800
N1077       N  0.86989836  0.44831822  0.41067417    -0.46600
C1078       C  0.62916381  0.06192832  0.13465607     0.42500
N1079       N  0.57519357  0.05563771  0.14384654     0.01400
C1080       C  0.96112560  0.47388136  0.26383873    -0.06500
H1081       H  0.48839154  0.38309587  0.20915528     0.06800
C1082       C  0.91712236  0.39230605  0.12191246    -0.06900
Co1083     Co  0.54803916  0.02764901  0.20329226     0.74200
N1084       N  0.50762895  0.44248496  0.20399443    -0.26000
Co1085     Co  0.95804523  0.44378476  0.20176220     0.74100
C1086       C  0.91795322  0.36149108  0.13626871     0.42600
N1087       N  0.97392431  0.49076082  0.10442674     0.01000
N1088       N  0.94005880  0.40958590  0.16489180     0.01100
N1089       N  0.52023315  0.02826764  0.26385702    -0.46900
H1090       H  0.63148793  0.03986277  0.17944918     0.06800
N1091       N  0.54189317  0.47440882  0.20443057     0.01400
N1092       N  0.90913514  0.44642652  0.19905905     0.01100
C1093       C  0.85474079  0.43990193  0.20719768     0.42700
N1094       N  0.50779937  0.02316438  0.10546038    -0.25500
C1095       C  0.56799075  0.10894403  0.22131139    -0.06400
N1096       N  0.60231729  0.06770569  0.12402653    -0.46600
N1097       N  0.88168511  0.43472630  0.21860280    -0.46800
C1098       C  0.56706910  0.13990028  0.20724363     0.42500
N1099       N  0.51136155  0.01143848  0.23834679     0.01400
N1100       N  0.97632565  0.05886399  0.13962356    -0.25500
N1101       N  0.58315554  0.04338151  0.16721803    -0.26000
N1102       N  0.94227133  0.02670868  0.13871317     0.01000
H1103       H  0.99461462  0.11828582  0.13662736     0.06900
H1104       H  0.85327069  0.46121045  0.16190371     0.06900
N1105       N  0.97713689  0.47938794  0.23781352    -0.26100
N1106       N  0.93149545  0.42088043  0.14126586    -0.25700
N1107       N  0.54433729  0.09182666  0.17851508     0.01400
C1108       C  0.55310978  0.42997760  0.21047099     0.42800
C1109       C  0.52454023  0.02981868  0.07968449    -0.06900
N1110       N  0.90132321  0.45799703  0.17525564    -0.25700
H1111       H  0.90637419  0.39275261  0.10088353     0.06900
N1112       N  0.56984539  0.46824239  0.20845661    -0.46900
H1113       H  0.55155302  0.05523684  0.07366407     0.06900
C1114       C  0.93014462  0.07074344  0.13483227     0.42600
C1115       C  0.61671779  0.04608614  0.16342613    -0.06400
Co1116     Co  0.52624616  0.05804192  0.14160869     0.73800
N1117       N  0.96591132  0.47483938  0.07855989    -0.46600
C1118       C  0.98971084  0.00645291  0.28093808     0.42900
N1119       N  0.55218432  0.12719915  0.18078810    -0.46600
Co1120     Co  0.93670095  0.47375686  0.13947676     0.73900
C1121       C  0.86768663  0.45522038  0.17838644    -0.06900
C1122       C  0.51170034  0.41272440  0.20749328    -0.06500
N1123       N  0.55340965  0.08051602  0.20183436    -0.26000
N1124       N  0.93235600  0.37420429  0.16282817    -0.46800
H1125       H  0.93404464  0.44896394  0.27041788     0.06900
C1126       C  0.97168101  0.08840918  0.13729084    -0.06900
Cl1127     Cl  0.99225981  0.00077131  0.17152668    -0.49900
C1128       C  0.99684700  0.49772036  0.06199778     0.42600
H1129       H  0.57883348  0.10817191  0.24221084     0.06800
N1130       N  0.91389078  0.03249191  0.13575056    -0.46600
C1131       C  0.57076039  0.20137445  0.20386434    -0.21300
C1132       C  0.58368152  0.17985008  0.21686826    -0.09300
C1133       C  0.61374522  0.19773498  0.23708230     0.29500
C1134       C  0.63095928  0.23677435  0.24344991    -0.21300
C1135       C  0.61805850  0.25822488  0.23015483    -0.09400
C1136       C  0.58757359  0.24004293  0.21041130     0.29500
F1137       F  0.57538061  0.26008936  0.19610497    -0.19900
H1138       H  0.54791118  0.18835658  0.18808947     0.17900
H1139       H  0.65463296  0.25036733  0.25851954     0.17900
F1140       F  0.62781944  0.17825684  0.24964053    -0.19900
C1141       C  0.79201310  0.43489160  0.20662302    -0.21300
C1142       C  0.81557755  0.42366014  0.21864725    -0.09300
C1143       C  0.80005002  0.39440844  0.23934284     0.29500
C1144       C  0.76086962  0.37480933  0.24600799    -0.21300
C1145       C  0.73696838  0.38475880  0.23273538    -0.09400
C1146       C  0.75312905  0.41579540  0.21358779     0.29500
F1147       F  0.73090010  0.42593101  0.19989576    -0.19900
H1148       H  0.80334144  0.45767002  0.19096943     0.17300
H1149       H  0.74897352  0.35120020  0.26098455     0.17900
F1150       F  0.82206743  0.38321711  0.25190939    -0.19900
C1151       C  0.55383376  0.37074041  0.21881282    -0.21300
C1152       C  0.57369284  0.41085680  0.21763397    -0.09300
C1153       C  0.61332983  0.43245976  0.22352010     0.29500
C1154       C  0.63262496  0.41417539  0.22984658    -0.21300
C1155       C  0.61306428  0.37399017  0.23035294    -0.09400
C1156       C  0.57314529  0.35237040  0.22511625     0.29500
F1157       F  0.55266361  0.31350273  0.22544766    -0.19900
H1158       H  0.52332157  0.35333858  0.21449263     0.17900
H1159       H  0.66322868  0.43174904  0.23389186     0.17900
F1160       F  0.63374138  0.47132488  0.22301026    -0.19900
C1161       C  0.62965117  0.23597341  0.35179831    -0.21300
C1162       C  0.61434108  0.25752474  0.36098351    -0.09300
C1163       C  0.57908143  0.23897013  0.37592840     0.29500
C1164       C  0.56104973  0.20042506  0.38300013    -0.21300
C1165       C  0.57735180  0.17949476  0.37509986    -0.09400
C1166       C  0.61115908  0.19710709  0.35856332     0.29500
F1167       F  0.62774653  0.17759596  0.35064326    -0.19900
H1168       H  0.65658344  0.24950881  0.34015451     0.17900
H1169       H  0.53483847  0.18720342  0.39554315     0.17900
F1170       F  0.56318195  0.25843614  0.38558834    -0.19900
C1171       C  0.79315351  0.42366307  0.39210766    -0.21300
C1172       C  0.81743185  0.41800632  0.37451338    -0.09300
C1173       C  0.80178901  0.39417089  0.35006605     0.29500
C1174       C  0.76225530  0.37482115  0.34457234    -0.21300
C1175       C  0.73817925  0.37983912  0.36281493    -0.09400
C1176       C  0.75401535  0.40489532  0.38636123     0.29500
F1177       F  0.73126399  0.40964389  0.40478002    -0.19900
H1178       H  0.80426658  0.44190735  0.41095090     0.17900
H1179       H  0.75040072  0.35585202  0.32615318     0.17900
F1180       F  0.82408325  0.38856873  0.33187795    -0.19900
C1181       C  0.64112545  0.41885729  0.36452806    -0.21300
C1182       C  0.61932224  0.37863988  0.36419222    -0.09300
C1183       C  0.57941813  0.35932407  0.36912810     0.29500
C1184       C  0.56228676  0.38000042  0.37492991    -0.21300
C1185       C  0.58430574  0.42018045  0.37585748    -0.09400
C1186       C  0.62399974  0.43948226  0.37020393     0.29500
F1187       F  0.64667854  0.47822089  0.36993557    -0.19900
H1188       H  0.67178618  0.43466800  0.36058291     0.17900
H1189       H  0.53165211  0.36439120  0.37899339     0.17900
F1190       F  0.55680306  0.32052564  0.36889127    -0.19900
C1191       C  0.84911127  0.08739963  0.12526016    -0.21300
C1192       C  0.86892187  0.12546139  0.11555567    -0.09300
C1193       C  0.90910355  0.14528531  0.11225030     0.29500
C1194       C  0.92882553  0.12744030  0.11881628    -0.21300
C1195       C  0.90902268  0.08954499  0.12867184    -0.09400
C1196       C  0.86886520  0.06959083  0.13183720     0.29500
F1197       F  0.84867535  0.03314184  0.14185165    -0.19900
H1198       H  0.81827710  0.07151042  0.12836311     0.17900
H1199       H  0.95964799  0.14329931  0.11580945     0.17900
F1200       F  0.92945075  0.18177238  0.10236290    -0.19900
C1201       C  0.85038794  0.26321703  0.10377591    -0.21300
C1202       C  0.86714204  0.24317879  0.11314639    -0.09300
C1203       C  0.90193258  0.26323644  0.12861922     0.29500
C1204       C  0.91847743  0.30188684  0.13546157    -0.21300
C1205       C  0.90137768  0.32162157  0.12656208    -0.09400
C1206       C  0.86744790  0.30218075  0.11020252     0.29500
F1207       F  0.84951832  0.32009231  0.10186595    -0.19900
H1208       H  0.82363059  0.24852851  0.09191656     0.17900
H1209       H  0.94457688  0.31638510  0.14812522     0.17900
F1210       F  0.91914016  0.24525161  0.13848040    -0.19900
C1211       C  0.72827283  0.08154644  0.12133826    -0.21300
C1212       C  0.74635377  0.11749132  0.10788976    -0.09300
C1213       C  0.72393997  0.13221996  0.09967926     0.29500
C1214       C  0.68492631  0.11262051  0.10682492    -0.21300
C1215       C  0.66794144  0.07849764  0.12258656    -0.09400
C1216       C  0.68952657  0.06236062  0.12886133     0.29500
F1217       F  0.67347671  0.02856419  0.14299675    -0.19900
H1218       H  0.74458941  0.06919625  0.12763495     0.17900
H1219       H  0.66857810  0.12527623  0.10146699     0.17900
F1220       F  0.73991298  0.16611350  0.08568386    -0.19900
C1221       C  0.85124256  0.09181695  0.46806651    -0.21300
C1222       C  0.87307626  0.13007383  0.47750662    -0.09300
C1223       C  0.91323944  0.14804831  0.47988529     0.29500
C1224       C  0.93065104  0.12771215  0.47327581    -0.21300
C1225       C  0.90852765  0.08930864  0.46409757    -0.09400
C1226       C  0.86859547  0.07176563  0.46118286     0.29500
F1227       F  0.84599285  0.03549418  0.45105521    -0.19900
H1228       H  0.82042936  0.07724758  0.46540585     0.17900
H1229       H  0.96150334  0.14200104  0.47557324     0.17900
F1230       F  0.93574854  0.18503540  0.48871958    -0.19900
C1231       C  0.87923982  0.31062486  0.48473681    -0.21300
C1232       C  0.91382198  0.32808345  0.46922969    -0.09300
C1233       C  0.93144191  0.30760523  0.46387558     0.29500
C1234       C  0.91334783  0.26937056  0.47206078    -0.21300
C1235       C  0.87701594  0.25063879  0.48529350    -0.09400
C1236       C  0.86072884  0.27207195  0.49258057     0.29500
F1237       F  0.82640038  0.25554935  0.50635097    -0.19900
H1238       H  0.86548348  0.32619421  0.48940332     0.17900
H1239       H  0.92692192  0.25389389  0.46646569     0.17900
F1240       F  0.96576599  0.32428475  0.45010130    -0.19900
C1241       C  0.69608799  0.07704470  0.45656177    -0.21300
C1242       C  0.67436269  0.09110702  0.46774136    -0.09300
C1243       C  0.69217700  0.12308048  0.98630625     0.29500
C1244       C  0.73137238  0.14133270  0.99257980    -0.21300
C1245       C  0.75329784  0.12770889  0.48090078    -0.09400
C1246       C  0.73501933  0.09479152  0.46322588     0.29500
F1247       F  0.75507600  0.08085848  0.45102128    -0.19900
H1248       H  0.68298762  0.05254154  0.44218515     0.17900
H1249       H  0.74476823  0.16659027  0.00619109     0.17900
F1250       F  0.67247426  0.13815981  0.99710486    -0.19900
C1251       C  0.85334991  0.15067589  0.48322555     0.80200
N1252       N  0.81441081  0.13100060  0.48298726    -0.78100
C1253       C  0.79540777  0.14930441  0.48524882     0.82700
N1254       N  0.81585076  0.18810829  0.48767450    -0.78000
C1255       C  0.85494727  0.20838578  0.48791350     0.82800
N1256       N  0.87343032  0.18941932  0.48546353    -0.79700
C1257       C  0.84770949  0.14456244  0.61042651     0.80200
N1258       N  0.86641549  0.18332606  0.61096993    -0.78100
C1259       C  0.84688188  0.20115420  0.60886383     0.82700
N1260       N  0.80798252  0.17965239  0.60629563    -0.78000
C1261       C  0.78877562  0.14075432  0.60580112     0.82800
N1262       N  0.80885928  0.12350490  0.60814427    -0.79700
C1263       C  0.63897744  0.35772068  0.86008163     0.80200
N1264       N  0.67788689  0.37717613  0.86002035    -0.78100
C1265       C  0.69644751  0.35837660  0.85830319     0.82700
N1266       N  0.67584448  0.31948941  0.85719566    -0.78000
C1267       C  0.63676246  0.29958404  0.85762251     0.82800
N1268       N  0.61869654  0.31894698  0.85909476    -0.79700
C1269       C  0.63511466  0.35548085  0.73446764     0.80200
N1270       N  0.67403786  0.37722578  0.73543220    -0.78100
C1271       C  0.69497717  0.36082607  0.73651569     0.82700
N1272       N  0.67669127  0.32200516  0.73636835    -0.78000
C1273       C  0.63770683  0.29986302  0.73509522     0.82800
N1274       N  0.61723506  0.31680860  0.73402518    -0.79700
C1275       C  0.56524784  0.44106681  0.88248596     0.42500
N1276       N  0.52080452  0.45269704  0.88808067     0.01400
C1277       C  0.54462630  0.12829377  0.91537159    -0.06500
H1278       H  0.60229079  0.08542734  0.99340038     0.06800
C1279       C  0.96371497  0.47048007  0.51276280    -0.06900
Co1280     Co  0.55351653  0.03665113  0.89170602     0.74200
N1281       N  0.57528002  0.06181314  0.95254160    -0.26000
Co1282     Co  0.52314214  0.05854463  0.95397932     0.74100
C1283       C  0.99610208  0.49723970  0.53066212     0.42600
N1284       N  0.93772918  0.42074936  0.94791692     0.01000
N1285       N  0.50425783  0.02083909  0.98855395     0.01100
N1286       N  0.56562414  0.11358992  0.87536622    -0.46900
H1287       H  0.61243987  0.50564095  0.88527530     0.06800
N1288       N  0.58688984  0.05325533  0.92889765     0.01400
N1289       N  0.97081833  0.05477678  0.95451101     0.01100
C1290       C  0.92719593  0.06781791  0.95822310     0.42700
N1291       N  0.95018929  0.41254794  0.92456071    -0.25500
C1292       C  0.52492318  0.03556903  0.82949804    -0.06400
N1293       N  0.52674528  0.42458379  0.88398190    -0.46600
N1294       N  0.96556798  0.08347163  0.95784149    -0.46800
C1295       C  0.99192572  0.00802294  0.81222372     0.42500
N1296       N  0.55269544  0.08617787  0.89479735     0.01400
N1297       N  0.91597367  0.44505860  0.88997071    -0.25500
N1298       N  0.55308289  0.48657735  0.88909221    -0.26000
N1299       N  0.90458517  0.45428292  0.91334663     0.01000
H1300       H  0.88959517  0.42213991  0.84893923     0.06900
H1301       H  0.87910418  0.00349791  0.95586335     0.06900
N1302       N  0.54084505  0.09432720  0.91850400    -0.26100
N1303       N  0.97123959  0.48756757  0.98716078    -0.25700
N1304       N  0.98608587  0.48536315  0.85435090     0.01400
C1305       C  0.63424250  0.07383867  0.95807556     0.42800
C1306       C  0.94644821  0.37861979  0.92813226    -0.06900
N1307       N  0.93824963  0.02119529  0.95303191    -0.25700
H1308       H  0.93775068  0.44379776  0.51850094     0.06900
N1309       N  0.62206596  0.06018055  0.93123764    -0.46900
H1310       H  0.95278083  0.36369703  0.91214236     0.06900
C1311       C  0.85768787  0.43476677  0.88382456     0.42600
C1312       C  0.58274868  0.48228181  0.88598068    -0.06400
Co1313     Co  0.96800438  0.44820349  0.88889073     0.73800
N1314       N  0.92457935  0.39351750  0.96753004    -0.46600
C1315       C  0.56091707  0.14084822  0.88674550     0.42900
N1316       N  0.96933718  0.47748810  0.82891141    -0.46600
Co1317     Co  0.93727709  0.47060052  0.95063271     0.73900
C1318       C  0.90901958  0.02637071  0.95520487    -0.06900
C1319       C  0.60322199  0.07501268  0.97226113    -0.06500
N1320       N  0.51874958  0.01901364  0.85527245    -0.26000
N1321       N  0.51989157  0.02801760  0.51441664    -0.46800
H1322       H  0.53858234  0.14311976  0.93164990     0.06900
C1323       C  0.88838058  0.43252823  0.86999602    -0.06900
Cl1324     Cl  0.99553010  0.00347887  0.92133226    -0.49900
C1325       C  0.92976317  0.36629470  0.95673500     0.42600
H1326       H  0.55026950  0.06247405  0.82324460     0.06800
N1327       N  0.86989788  0.44831798  0.91067390    -0.46600
C1328       C  0.62916401  0.06192850  0.63465617     0.42500
N1329       N  0.57519381  0.05563808  0.64384657     0.01400
C1330       C  0.96112535  0.47388132  0.76383871    -0.06500
H1331       H  0.48839140  0.38309557  0.70915548     0.06800
C1332       C  0.91712269  0.39230634  0.62191240    -0.06900
Co1333     Co  0.54803936  0.02764940  0.70329231     0.74200
N1334       N  0.50762879  0.44248464  0.70399447    -0.26000
Co1335     Co  0.95804526  0.44378499  0.70176217     0.74100
C1336       C  0.91795369  0.36149147  0.63626866     0.42600
N1337       N  0.97392456  0.49076104  0.60442673     0.01000
N1338       N  0.94005899  0.40958620  0.66489177     0.01100
N1339       N  0.52023332  0.02826794  0.76385713    -0.46900
H1340       H  0.63148798  0.03986292  0.67944928     0.06800
N1341       N  0.54189302  0.47440849  0.70443049     0.01400
N1342       N  0.90913525  0.44642679  0.69905896     0.01100
C1343       C  0.85474108  0.43990247  0.70719776     0.42700
N1344       N  0.50779954  0.02316470  0.60546039    -0.25500
C1345       C  0.56799101  0.10894443  0.72131138    -0.06400
N1346       N  0.60231756  0.06770598  0.62402659    -0.46600
N1347       N  0.88168538  0.43472677  0.71860279    -0.46800
C1348       C  0.56706950  0.13990074  0.70724358     0.42500
N1349       N  0.51136176  0.01143887  0.73834687     0.01400
N1350       N  0.97632571  0.05886366  0.63962391    -0.25500
N1351       N  0.58315571  0.04338186  0.66721807    -0.26000
N1352       N  0.94227136  0.02670839  0.63871350     0.01000
H1353       H  0.99461485  0.11828557  0.63662819     0.06900
H1354       H  0.85327078  0.46121091  0.66190380     0.06900
N1355       N  0.97713674  0.47938804  0.73781353    -0.26100
N1356       N  0.93149564  0.42088069  0.64126582    -0.25700
N1357       N  0.54433752  0.09182705  0.67851507     0.01400
C1358       C  0.55310965  0.42997731  0.71047103     0.42800
C1359       C  0.52454041  0.02981891  0.57968451    -0.06900
N1360       N  0.90132326  0.45799726  0.67525555    -0.25700
H1361       H  0.90637456  0.39275287  0.60088344     0.06900
N1362       N  0.56984524  0.46824207  0.70845652    -0.46900
H1363       H  0.55155324  0.05523702  0.57366408     0.06900
C1364       C  0.93014481  0.07074334  0.63483315     0.42600
C1365       C  0.61671791  0.04608636  0.66342621    -0.06400
Co1366     Co  0.52624636  0.05804231  0.64160868     0.73800
N1367       N  0.96591171  0.47483954  0.57855990    -0.46600
C1368       C  0.98971099  0.00645279  0.78093796     0.42900
N1369       N  0.55218468  0.12719959  0.68078805    -0.46600
Co1370     Co  0.93670107  0.47375706  0.63947669     0.73900
C1371       C  0.86768676  0.45522077  0.67838646    -0.06900
C1372       C  0.51170019  0.41272409  0.70749340    -0.06500
N1373       N  0.55340984  0.08051640  0.70183437    -0.26000
N1374       N  0.93235636  0.37420466  0.66282814    -0.46800
H1375       H  0.93404441  0.44896383  0.77041779     0.06900
C1376       C  0.97168118  0.08840894  0.63729152    -0.06900
Cl1377     Cl  0.99225982  0.00077085  0.67152672    -0.49900
C1378       C  0.99684749  0.49772048  0.56199786     0.42600
H1379       H  0.57883375  0.10817228  0.74221082     0.06800
N1380       N  0.91389086  0.03249177  0.63575121    -0.46600
C1381       C  0.57076163  0.20137527  0.70386378    -0.21300
C1382       C  0.58368210  0.17985059  0.71686815    -0.09300
C1383       C  0.61374530  0.19773523  0.73708262     0.29500
C1384       C  0.63095940  0.23677458  0.74345031    -0.21300
C1385       C  0.61805918  0.25822536  0.73015483    -0.09400
C1386       C  0.58757491  0.24004373  0.71041078     0.29500
F1387       F  0.57538264  0.26009049  0.69610403    -0.19900
H1388       H  0.54791286  0.18835764  0.68808855     0.17900
H1389       H  0.65463264  0.25036736  0.75852032     0.17900
F1390       F  0.62781894  0.17825682  0.74964128    -0.19900
C1391       C  0.79201370  0.43489283  0.70662387    -0.21300
C1392       C  0.81557795  0.42366071  0.71864748    -0.09300
C1393       C  0.80005030  0.39440840  0.73934257     0.29500
C1394       C  0.76086995  0.37480931  0.74600778    -0.21300
C1395       C  0.73696885  0.38475939  0.73273575    -0.09400
C1396       C  0.75312969  0.41579667  0.71358875     0.29500
F1397       F  0.73090093  0.42593303  0.69989738    -0.19900
H1398       H  0.80334221  0.45767173  0.69097067     0.17300
H1399       H  0.74897375  0.35119967  0.76098389     0.17900
F1400       F  0.82206752  0.38321641  0.75190849    -0.19900
C1401       C  0.55383361  0.37074030  0.71881415    -0.21300
C1402       C  0.57369283  0.41085664  0.71763407    -0.09300
C1403       C  0.61333013  0.43245973  0.72351903     0.29500
C1404       C  0.63262540  0.41417555  0.72984561    -0.21300
C1405       C  0.61306457  0.37399036  0.73035320    -0.09400
C1406       C  0.57314530  0.35237046  0.72511767     0.29500
F1407       F  0.55266345  0.31350282  0.72545041    -0.19900
H1408       H  0.52332118  0.35333837  0.71449493     0.17900
H1409       H  0.66322934  0.43174930  0.73388993     0.17900
F1410       F  0.63374188  0.47132481  0.72300791    -0.19900
C1411       C  0.62965086  0.23597318  0.85179811    -0.21300
C1412       C  0.61434045  0.25752438  0.86098290    -0.09300
C1413       C  0.57908046  0.23896959  0.87592738     0.29500
C1414       C  0.56104887  0.20042456  0.88299925    -0.21300
C1415       C  0.57735134  0.17949446  0.87509948    -0.09400
C1416       C  0.61115888  0.19710692  0.85856325     0.29500
F1417       F  0.62774672  0.17759598  0.85064369    -0.19900
H1418       H  0.65658336  0.24950867  0.84015461     0.17900
H1419       H  0.53483738  0.18720279  0.89554200     0.17900
F1420       F  0.56318050  0.25843536  0.88558680    -0.19900
C1421       C  0.79315297  0.42366239  0.89210743    -0.21300
C1422       C  0.81743148  0.41800604  0.87451302    -0.09300
C1423       C  0.80178878  0.39417088  0.85006553     0.29500
C1424       C  0.76225505  0.37482100  0.84457180    -0.21300
C1425       C  0.73817887  0.37983858  0.86281453    -0.09400
C1426       C  0.75401482  0.40489448  0.88636101     0.29500
F1427       F  0.73126332  0.40964262  0.90477996    -0.19900
H1428       H  0.80426591  0.44190646  0.91095079     0.17900
H1429       H  0.75040058  0.35585212  0.82615250     0.17900
F1430       F  0.82408319  0.38856917  0.83187727    -0.19900
C1431       C  0.64112555  0.41885738  0.86452785    -0.21300
C1432       C  0.61932232  0.37863994  0.86419281    -0.09300
C1433       C  0.57941849  0.35932431  0.86912986     0.29500
C1434       C  0.56228735  0.38000085  0.87493178    -0.21300
C1435       C  0.58430630  0.42018089  0.87585830    -0.09400
C1436       C  0.62400006  0.43948254  0.87020385     0.29500
F1437       F  0.64667875  0.47822116  0.86993454    -0.19900
H1438       H  0.67178609  0.43466793  0.86058185     0.17900
H1439       H  0.53165290  0.36439175  0.87899608     0.17900
F1440       F  0.55680345  0.32052588  0.86889407    -0.19900
C1441       C  0.84911173  0.08739998  0.62526150    -0.21300
C1442       C  0.86892238  0.12546169  0.61555692    -0.09300
C1443       C  0.90910405  0.14528554  0.61225153     0.29500
C1444       C  0.92882595  0.12744042  0.61881744    -0.21300
C1445       C  0.90902302  0.08954510  0.62867298    -0.09400
C1446       C  0.86886558  0.06959109  0.63183850     0.29500
F1447       F  0.84867570  0.03314216  0.64185307    -0.19900
H1448       H  0.81827758  0.07151084  0.62836451     0.17900
H1449       H  0.95964840  0.14329934  0.61581053     0.17900
F1450       F  0.92945133  0.18177262  0.60236414    -0.19900
C1451       C  0.85038817  0.26321713  0.60377656    -0.21300
C1452       C  0.86714265  0.24317915  0.61314678    -0.09300
C1453       C  0.90193362  0.26323713  0.62861907     0.29500
C1454       C  0.91847847  0.30188757  0.63546122    -0.21300
C1455       C  0.90137827  0.32162201  0.62656206    -0.09400
C1456       C  0.86744810  0.30218089  0.61020297     0.29500
F1457       F  0.84951812  0.32009219  0.60186676    -0.19900
H1458       H  0.82363050  0.24852837  0.59191761     0.17900
H1459       H  0.94457824  0.31638611  0.64812451     0.17900
F1460       F  0.91914166  0.24525260  0.63847995    -0.19900
C1461       C  0.72827310  0.08154657  0.62133880    -0.21300
C1462       C  0.74635427  0.11749166  0.60789059    -0.09300
C1463       C  0.72394061  0.13222045  0.59968008     0.29500
C1464       C  0.68492686  0.11262095  0.60682546    -0.21300
C1465       C  0.66794172  0.07849785  0.62258681    -0.09400
C1466       C  0.68952672  0.06236067  0.62886156     0.29500
F1467       F  0.67347660  0.02856399  0.64299667    -0.19900
H1468       H  0.74458955  0.06919624  0.62763547     0.17900
H1469       H  0.66857876  0.12527681  0.60146755     0.17900
F1470       F  0.73991383  0.16611419  0.58568494    -0.19900
C1471       C  0.85124268  0.09181722  0.96806571    -0.21300
C1472       C  0.87307580  0.13007316  0.97750806    -0.09300
C1473       C  0.91323865  0.14804687  0.97988905     0.29500
C1474       C  0.93065052  0.12771097  0.97327947    -0.21300
C1475       C  0.90852771  0.08930843  0.96409891    -0.09400
C1476       C  0.86859589  0.07176614  0.96118206     0.29500
F1477       F  0.84599408  0.03549576  0.95105213    -0.19900
H1478       H  0.82042982  0.07724856  0.96540322     0.17900
H1479       H  0.96150253  0.14199924  0.97557869     0.17900
F1480       F  0.93574709  0.18503291  0.98872587    -0.19900
C1481       C  0.87923893  0.31062423  0.98473739    -0.21300
C1482       C  0.91382091  0.32808279  0.96923003    -0.09300
C1483       C  0.93144090  0.30760460  0.96387595     0.29500
C1484       C  0.91334703  0.26937001  0.97206136    -0.21300
C1485       C  0.87701531  0.25063824  0.98529433    -0.09400
C1486       C  0.86072818  0.27207138  0.99258140     0.29500
F1487       F  0.82639991  0.25554883  0.00635207    -0.19900
H1488       H  0.86548255  0.32619353  0.98940394     0.17900
H1489       H  0.92692116  0.25389337  0.96646628     0.17900
F1490       F  0.96576487  0.32428411  0.95010152    -0.19900
C1491       C  0.69608786  0.07704494  0.95656204    -0.21300
C1492       C  0.67436242  0.09110697  0.96774187    -0.09300
C1493       C  0.69217752  0.12308110  0.48630517     0.29500
C1494       C  0.73137299  0.14133358  0.49257841    -0.21300
C1495       C  0.75329737  0.12770832  0.98090190    -0.09400
C1496       C  0.73501909  0.09479150  0.96322643     0.29500
F1497       F  0.75507594  0.08085885  0.95102153    -0.19900
H1498       H  0.68298769  0.05254221  0.94218499     0.17900
H1499       H  0.74476899  0.16659155  0.50618928     0.17900
F1500       F  0.67247487  0.13816069  0.49710349    -0.19900
C1501       C  0.85334939  0.65067593  0.98322320     0.80200
N1502       N  0.81441029  0.63100060  0.98298497    -0.78100
C1503       C  0.79540712  0.64930417  0.98524743     0.82700
N1504       N  0.81584995  0.68810791  0.98767412    -0.78000
C1505       C  0.85494645  0.70838550  0.98791319     0.82800
N1506       N  0.87342961  0.68941925  0.98546221    -0.79700
C1507       C  0.84770826  0.64456254  0.11042494     0.80200
N1508       N  0.86641434  0.68332620  0.11096971    -0.78100
C1509       C  0.84688091  0.70115453  0.10886345     0.82700
N1510       N  0.80798173  0.67965295  0.10629381    -0.78000
C1511       C  0.78877478  0.64075491  0.10579804     0.82800
N1512       N  0.80885819  0.62350524  0.10814132    -0.79700
C1513       C  0.63897790  0.85772116  0.36008054     0.80200
N1514       N  0.67788737  0.87717661  0.36001963    -0.78100
C1515       C  0.69644799  0.85837709  0.35830186     0.82700
N1516       N  0.67584495  0.81948993  0.35719349    -0.78000
C1517       C  0.63676291  0.79958452  0.35761997     0.82800
N1518       N  0.61869701  0.81894748  0.35909275    -0.79700
C1519       C  0.63511356  0.85547961  0.23446968     0.80200
N1520       N  0.67403674  0.87722442  0.23543432    -0.78100
C1521       C  0.69497602  0.86082468  0.23651745     0.82700
N1522       N  0.67669008  0.82200372  0.23636966    -0.78000
C1523       C  0.63770558  0.79986168  0.23509646     0.82800
N1524       N  0.61723391  0.81680739  0.23402681    -0.79700
C1525       C  0.56524793  0.94106663  0.38248756     0.42500
N1526       N  0.52080466  0.95269686  0.38808319     0.01400
C1527       C  0.54462563  0.62829374  0.41536736    -0.06500
H1528       H  0.60229047  0.58542849  0.49339680     0.06800
C1529       C  0.96371283  0.97047870  0.01276502    -0.06900
Co1530     Co  0.55351589  0.53665086  0.39170275     0.74200
N1531       N  0.57527996  0.56181412  0.45253805    -0.26000
Co1532     Co  0.52314190  0.55854518  0.45397584     0.74100
C1533       C  0.99610005  0.99723769  0.03066455     0.42600
N1534       N  0.93772830  0.92074921  0.44791879     0.01000
N1535       N  0.50425851  0.52084029  0.48855093     0.01100
N1536       N  0.56562371  0.61358954  0.37536230    -0.46900
H1537       H  0.61244004  0.00564065  0.38527760     0.06800
N1538       N  0.58688974  0.55325603  0.42889422     0.01400
N1539       N  0.97081828  0.55477702  0.45450818     0.01100
C1540       C  0.92719500  0.56781711  0.45822031     0.42700
N1541       N  0.95018895  0.91254793  0.42456280    -0.25500
C1542       C  0.52492176  0.53556745  0.32949486    -0.06400
N1543       N  0.52674536  0.92458365  0.38398371    -0.46600
N1544       N  0.96556721  0.58347148  0.45783815    -0.46800
C1545       C  0.99192513  0.50802198  0.31222121     0.42500
N1546       N  0.55269471  0.58617758  0.39479356     0.01400
N1547       N  0.91597379  0.94505881  0.38997250    -0.25500
N1548       N  0.55308308  0.98657710  0.38909496    -0.26000
N1549       N  0.90458510  0.95428330  0.41334824     0.01000
H1550       H  0.88959538  0.92213925  0.34894115     0.06900
H1551       H  0.87910438  0.50349639  0.45586134     0.06900
N1552       N  0.54084424  0.59432713  0.41850006    -0.26100
N1553       N  0.97123824  0.98756662  0.48716315    -0.25700
N1554       N  0.98608645  0.98536366  0.35435327     0.01400
C1555       C  0.63424252  0.57383992  0.45807217     0.42800
C1556       C  0.94644829  0.87862000  0.42813462    -0.06900
N1557       N  0.93824992  0.52119520  0.45302979    -0.25700
H1558       H  0.93774820  0.94379658  0.01850296     0.06900
N1559       N  0.62206592  0.56018141  0.43123430    -0.46900
H1560       H  0.95278152  0.86369740  0.41214502     0.06900
C1561       C  0.85768783  0.93476660  0.38382596     0.42600
C1562       C  0.58274883  0.98228154  0.38598296    -0.06400
Co1563     Co  0.96800449  0.94820360  0.38889287     0.73800
N1564       N  0.92457850  0.89351747  0.46753199    -0.46600
C1565       C  0.56091668  0.64084800  0.38674130     0.42900
N1566       N  0.96933788  0.97748905  0.32891376    -0.46600
Co1567     Co  0.93727641  0.97060042  0.45063468     0.73900
C1568       C  0.90901944  0.52636987  0.45520279    -0.06900
C1569       C  0.60322192  0.57501390  0.47225759    -0.06500
N1570       N  0.51874842  0.51901254  0.35526942    -0.26000
N1571       N  0.51989280  0.52801983  0.01441357    -0.46800
H1572       H  0.53858186  0.64312002  0.43164556     0.06900
C1573       C  0.88838074  0.93252808  0.36999772    -0.06900
Cl1574     Cl  0.99553042  0.50347931  0.42132987    -0.49900
C1575       C  0.92976293  0.86629497  0.45673727     0.42600
H1576       H  0.55026802  0.56247237  0.32324116     0.06800
N1577       N  0.86989772  0.94831809  0.41067528    -0.46600
C1578       C  0.62916386  0.56193121  0.13465344     0.42500
N1579       N  0.57519354  0.55564017  0.14384426     0.01400
C1580       C  0.96112562  0.97388293  0.26384146    -0.06500
H1581       H  0.48838991  0.88309497  0.20915891     0.06800
C1582       C  0.91712026  0.89230588  0.12191593    -0.06900
Co1583     Co  0.54803878  0.52764948  0.20328959     0.74200
N1584       N  0.50762785  0.94248426  0.20399808    -0.26000
Co1585     Co  0.95804431  0.94378538  0.20176532     0.74100
C1586       C  0.91795044  0.86149066  0.13627234     0.42600
N1587       N  0.97392346  0.99075980  0.10442934     0.01000
N1588       N  0.94005682  0.90958578  0.16489524     0.01100
N1589       N  0.52023189  0.52826630  0.26385430    -0.46900
H1590       H  0.63148801  0.53986461  0.17944610     0.06800
N1591       N  0.54189230  0.97440784  0.20443382     0.01400
N1592       N  0.90913495  0.94642830  0.19906223     0.01100
C1593       C  0.85474094  0.93990447  0.20720104     0.42700
N1594       N  0.50779981  0.52316644  0.10545767    -0.25500
C1595       C  0.56798837  0.60894316  0.22131006    -0.06400
N1596       N  0.60231726  0.56770866  0.12402420    -0.46600
N1597       N  0.88168511  0.93472855  0.21860607    -0.46800
C1598       C  0.56706638  0.63989958  0.20724297     0.42500
N1599       N  0.51136078  0.51143757  0.23834393     0.01400
N1600       N  0.97632433  0.55886343  0.13962187    -0.25500
N1601       N  0.58315555  0.54338352  0.16721547    -0.26000
N1602       N  0.94227031  0.52670780  0.13871090     0.01000
H1603       H  0.99461249  0.61828507  0.13662668     0.06900
H1604       H  0.85327082  0.96121270  0.16190693     0.06900
N1605       N  0.97713676  0.97938915  0.23781626    -0.26100
N1606       N  0.93149375  0.92088038  0.14126922    -0.25700
N1607       N  0.54433542  0.59182686  0.17851351     0.01400
C1608       C  0.55310839  0.92997621  0.21047395     0.42800
C1609       C  0.52454113  0.52982149  0.07968189    -0.06900
N1610       N  0.90132312  0.95799880  0.17525877    -0.25700
H1611       H  0.90637248  0.89275269  0.10088689     0.06900
N1612       N  0.56984428  0.96824099  0.20845936    -0.46900
H1613       H  0.55155374  0.55524007  0.07366175     0.06900
C1614       C  0.93014277  0.57074213  0.13483069     0.42600
C1615       C  0.61671791  0.54608844  0.16342335    -0.06400
Co1616     Co  0.52624541  0.55804312  0.14160651     0.73800
N1617       N  0.96590986  0.97483808  0.07856256    -0.46600
C1618       C  0.98971049  0.50645152  0.28093543     0.42900
N1619       N  0.55218193  0.62719913  0.18078723    -0.46600
Co1620     Co  0.93670055  0.97375728  0.13947962     0.73900
C1621       C  0.86768679  0.95522270  0.17838970    -0.06900
C1622       C  0.51169889  0.91272342  0.20749686    -0.06500
N1623       N  0.55340792  0.58051584  0.20183251    -0.26000
N1624       N  0.93235340  0.87420392  0.16283178    -0.46800
H1625       H  0.93404457  0.94896571  0.27042071     0.06900
C1626       C  0.97167915  0.58840829  0.13728965    -0.06900
Cl1627     Cl  0.99226002  0.50077125  0.17152410    -0.49900
C1628       C  0.99684568  0.99771824  0.06200029     0.42600
H1629       H  0.57883105  0.60817053  0.24220941     0.06800
N1630       N  0.91388939  0.53249057  0.13574834    -0.46600
C1631       C  0.57075932  0.70137462  0.20386417    -0.21300
C1632       C  0.58367937  0.67984932  0.21686808    -0.09300
C1633       C  0.61374268  0.69773330  0.23708253     0.29500
C1634       C  0.63095737  0.73677264  0.24345059    -0.21300
C1635       C  0.61805763  0.75822407  0.23015552    -0.09400
C1636       C  0.58757320  0.74004306  0.21041153     0.29500
F1637       F  0.57538130  0.76009043  0.19610519    -0.19900
H1638       H  0.54791048  0.68835750  0.18808899     0.17900
H1639       H  0.65463063  0.75036488  0.25852060     0.17900
F1640       F  0.62781588  0.67825429  0.24964082    -0.19900
C1641       C  0.79201243  0.93489250  0.20662593    -0.21300
C1642       C  0.81557737  0.92366175  0.21865033    -0.09300
C1643       C  0.80005000  0.89440969  0.23934565     0.29500
C1644       C  0.76086938  0.87480950  0.24601030    -0.21300
C1645       C  0.73696773  0.88475830  0.23273752    -0.09400
C1646       C  0.75312817  0.91579526  0.21359023     0.29500
F1647       F  0.73089885  0.92593031  0.19989809    -0.19900
H1648       H  0.80334060  0.95767115  0.19097254     0.17300
H1649       H  0.74897349  0.85120019  0.26098669     0.17900
F1650       F  0.82206788  0.88321912  0.25191248    -0.19900
C1651       C  0.55383180  0.87073921  0.21881931    -0.21300
C1652       C  0.57369163  0.91085543  0.21763648    -0.09300
C1653       C  0.61332976  0.93245851  0.22351837     0.29500
C1654       C  0.63262510  0.91417442  0.22984486    -0.21300
C1655       C  0.61306359  0.87398927  0.23035533    -0.09400
C1656       C  0.57314362  0.85236943  0.22512270     0.29500
F1657       F  0.55266110  0.81350184  0.22545845    -0.19900
H1658       H  0.52331873  0.85333730  0.21450256     0.17900
H1659       H  0.66322963  0.93174820  0.23388674     0.17900
F1660       F  0.63374232  0.97132351  0.22300415    -0.19900
C1661       C  0.62965214  0.73597387  0.35179559    -0.21300
C1662       C  0.61434081  0.75752463  0.36097951    -0.09300
C1663       C  0.57907968  0.73896905  0.37592252     0.29500
C1664       C  0.56104793  0.70042389  0.38299398    -0.21300
C1665       C  0.57735129  0.67949430  0.37509525    -0.09400
C1666       C  0.61115998  0.69710742  0.35856031     0.29500
F1667       F  0.62774869  0.67759696  0.35064175    -0.19900
H1668       H  0.65658549  0.74950985  0.34015319     0.17900
H1669       H  0.53483556  0.68720158  0.39553572     0.17900
F1670       F  0.56317859  0.75843414  0.38558101    -0.19900
C1671       C  0.79315148  0.92365810  0.39211022    -0.21300
C1672       C  0.81743142  0.91800576  0.37451419    -0.09300
C1673       C  0.80179024  0.89417481  0.35006444     0.29500
C1674       C  0.76225666  0.87482507  0.34456990    -0.21300
C1675       C  0.73817915  0.87983871  0.36281416    -0.09400
C1676       C  0.75401353  0.90489038  0.38636306     0.29500
F1677       F  0.73126068  0.90963456  0.40478339    -0.19900
H1678       H  0.80426309  0.94189889  0.41095532     0.17900
H1679       H  0.75040339  0.85585954  0.32614872     0.17900
F1680       F  0.82408609  0.88857755  0.33187437    -0.19900
C1681       C  0.64112551  0.91885772  0.36452683    -0.21300
C1682       C  0.61932261  0.87864027  0.36419228    -0.09300
C1683       C  0.57941895  0.85932448  0.36913024     0.29500
C1684       C  0.56228775  0.88000083  0.37493282    -0.21300
C1685       C  0.58430640  0.92018088  0.37585899    -0.09400
C1686       C  0.62399990  0.93948271  0.37020332     0.29500
F1687       F  0.64667816  0.97822135  0.36993312    -0.19900
H1688       H  0.67178586  0.93466840  0.36057996     0.17900
H1689       H  0.53165348  0.86439157  0.37899793     0.17900
F1690       F  0.55680414  0.82052605  0.36889478    -0.19900
C1691       C  0.84910977  0.58739929  0.12525922    -0.21300
C1692       C  0.86892073  0.62546127  0.11555513    -0.09300
C1693       C  0.90910235  0.64528485  0.11224975     0.29500
C1694       C  0.92882395  0.62743932  0.11881527    -0.21300
C1695       C  0.90902083  0.58954380  0.12867046    -0.09400
C1696       C  0.86886338  0.56958994  0.13183585     0.29500
F1697       F  0.84867330  0.53314081  0.14185000    -0.19900
H1698       H  0.81827561  0.57151033  0.12836216     0.17900
H1699       H  0.95964640  0.64329816  0.11580838     0.17900
F1700       F  0.92944987  0.68177209  0.10236272    -0.19900
C1701       C  0.85038856  0.76321807  0.10377584    -0.21300
C1702       C  0.86714129  0.74317920  0.11314785    -0.09300
C1703       C  0.90192976  0.76323585  0.12862322     0.29500
C1704       C  0.91847390  0.80188591  0.13546643    -0.21300
C1705       C  0.90137551  0.82162133  0.12656533    -0.09400
C1706       C  0.86744785  0.80218148  0.11020330     0.29500
F1707       F  0.84951957  0.82009362  0.10186489    -0.19900
H1708       H  0.82363278  0.74853027  0.09191450     0.17900
H1709       H  0.94457175  0.81638339  0.14813191     0.17900
F1710       F  0.91913583  0.74525025  0.13848596    -0.19900
C1711       C  0.72827180  0.58154717  0.12133474    -0.21300
C1712       C  0.74635338  0.61749237  0.10788670    -0.09300
C1713       C  0.72394012  0.63222164  0.09967621     0.29500
C1714       C  0.68492647  0.61262274  0.10682188    -0.21300
C1715       C  0.66794112  0.57849977  0.12258343    -0.09400
C1716       C  0.68952556  0.56236188  0.12885775     0.29500
F1717       F  0.67347510  0.52856515  0.14299283    -0.19900
H1718       H  0.74458789  0.56919643  0.12763131     0.17900
H1719       H  0.66857871  0.62527902  0.10146416     0.17900
F1720       F  0.73991374  0.66611536  0.08568098    -0.19900
C1721       C  0.85124056  0.59181372  0.46807127    -0.21300
C1722       C  0.87307546  0.63007328  0.47750527    -0.09300
C1723       C  0.91323956  0.64804993  0.47987784     0.29500
C1724       C  0.93065087  0.62771347  0.47326838    -0.21300
C1725       C  0.90852641  0.58930743  0.46409610    -0.09400
C1726       C  0.86859308  0.57176200  0.46118763     0.29500
F1727       F  0.84598847  0.53548742  0.45106652    -0.19900
H1728       H  0.82042642  0.57724219  0.46541565     0.17900
H1729       H  0.96150399  0.64200438  0.47556091     0.17900
F1730       F  0.93575008  0.68503970  0.48870572    -0.19900
C1731       C  0.87923714  0.81062359  0.48473783    -0.21300
C1732       C  0.91382053  0.82808311  0.46923226    -0.09300
C1733       C  0.93144176  0.80760584  0.46387962     0.29500
C1734       C  0.91334768  0.76937100  0.47206438    -0.21300
C1735       C  0.87701454  0.75063815  0.48529522    -0.09400
C1736       C  0.86072622  0.77207055  0.49258121     0.29500
F1737       F  0.82639656  0.75554706  0.50634996    -0.19900
H1738       H  0.86547982  0.82619228  0.48940328     0.17900
H1739       H  0.92692287  0.75389507  0.46647030     0.17900
F1740       F  0.96576712  0.82428648  0.45010708    -0.19900
C1741       C  0.69608855  0.57704750  0.45655719    -0.21300
C1742       C  0.67436231  0.59110767  0.46773883    -0.09300
C1743       C  0.69217656  0.62307967  0.98630451     0.29500
C1744       C  0.73137186  0.64133175  0.99257825    -0.21300
C1745       C  0.75329693  0.62770823  0.48089980    -0.09400
C1746       C  0.73501961  0.59479368  0.46322200     0.29500
F1747       F  0.75507733  0.58086314  0.45101526    -0.19900
H1748       H  0.68298918  0.55254660  0.44217840     0.17900
H1749       H  0.74476727  0.66658815  0.00619077     0.17900
F1750       F  0.67247333  0.63815766  0.99710466    -0.19900
C1751       C  0.85334897  0.65067531  0.48322440     0.80200
N1752       N  0.81440985  0.63099995  0.48298607    -0.78100
C1753       C  0.79540668  0.64930356  0.48524845     0.82700
N1754       N  0.81584951  0.68810731  0.48767508    -0.78000
C1755       C  0.85494601  0.70838494  0.48791414     0.82800
N1756       N  0.87342920  0.68941868  0.48546329    -0.79700
C1757       C  0.84770791  0.64456213  0.61042404     0.80200
N1758       N  0.86641394  0.68332577  0.61096890    -0.78100
C1759       C  0.84688049  0.70115408  0.60886269     0.82700
N1760       N  0.80798131  0.67965247  0.60629299    -0.78000
C1761       C  0.78877440  0.64075443  0.60579714     0.82800
N1762       N  0.80885785  0.62350479  0.60814039    -0.79700
C1763       C  0.63897818  0.85772159  0.86008046     0.80200
N1764       N  0.67788767  0.87717712  0.86001966    -0.78100
C1765       C  0.69644838  0.85837767  0.85830212     0.82700
N1766       N  0.67584541  0.81949051  0.85719388    -0.78000
C1767       C  0.63676337  0.79958504  0.85762029     0.82800
N1768       N  0.61869738  0.81894792  0.85909284    -0.79700
C1769       C  0.63511327  0.85547942  0.73446917     0.80200
N1770       N  0.67403646  0.87722409  0.73543375    -0.78100
C1771       C  0.69497559  0.86082418  0.73651701     0.82700
N1772       N  0.67668948  0.82200322  0.73636940    -0.78000
C1773       C  0.63770498  0.79986130  0.73509625     0.82800
N1774       N  0.61723346  0.81680717  0.73402649    -0.79700
C1775       C  0.56524777  0.94106661  0.88248732     0.42500
N1776       N  0.52080449  0.95269673  0.88808327     0.01400
C1777       C  0.54462595  0.62829414  0.91536745    -0.06500
H1778       H  0.60229089  0.58542848  0.99339677     0.06800
C1779       C  0.96371233  0.97047867  0.51276504    -0.06900
Co1780     Co  0.55351630  0.53665140  0.89170263     0.74200
N1781       N  0.57528037  0.56181448  0.95253795    -0.26000
Co1782     Co  0.52314232  0.55854558  0.95397586     0.74100
C1783       C  0.99609956  0.99723767  0.53066455     0.42600
N1784       N  0.93772897  0.92074956  0.94791863     0.01000
N1785       N  0.50425903  0.52084070  0.98855095     0.01100
N1786       N  0.56562400  0.61359004  0.87536232    -0.46900
H1787       H  0.61243978  0.00564071  0.88527732     0.06800
N1788       N  0.58689011  0.55325647  0.92889406     0.01400
N1789       N  0.97081778  0.55477672  0.95450775     0.01100
C1790       C  0.92719446  0.56781680  0.95821932     0.42700
N1791       N  0.95018961  0.91254833  0.92456261    -0.25500
C1792       C  0.52492207  0.53556786  0.82949469    -0.06400
N1793       N  0.52674521  0.92458358  0.88398356    -0.46600
N1794       N  0.96556667  0.58347119  0.95783729    -0.46800
C1795       C  0.99192472  0.50802167  0.81222128     0.42500
N1796       N  0.55269501  0.58617803  0.89479353     0.01400
N1797       N  0.91597418  0.94505904  0.88997249    -0.25500
N1798       N  0.55308289  0.98657700  0.88909509    -0.26000
N1799       N  0.90458551  0.95428350  0.91334826     0.01000
H1800       H  0.88959572  0.92213955  0.84894113     0.06900
H1801       H  0.87910399  0.50349589  0.95586039     0.06900
N1802       N  0.54084456  0.59432753  0.91850008    -0.26100
N1803       N  0.97123872  0.98756668  0.98716314    -0.25700
N1804       N  0.98608674  0.98536392  0.85435316     0.01400
C1805       C  0.63424277  0.57383990  0.95807202     0.42800
C1806       C  0.94644917  0.87862052  0.92813441    -0.06900
N1807       N  0.93824947  0.52119489  0.95302942    -0.25700
H1808       H  0.93774772  0.94379654  0.51850298     0.06900
N1809       N  0.62206621  0.56018162  0.93123411    -0.46900
H1810       H  0.95278245  0.86369797  0.91214479     0.06900
C1811       C  0.85768820  0.93476680  0.88382603     0.42600
C1812       C  0.58274863  0.98228151  0.88598288    -0.06400
Co1813     Co  0.96800494  0.94820391  0.88889274     0.73800
N1814       N  0.92457939  0.89351790  0.96753184    -0.46600
C1815       C  0.56091698  0.64084847  0.88674139     0.42900
N1816       N  0.96933811  0.97748921  0.82891368    -0.46600
Co1817     Co  0.93727686  0.97060059  0.95063468     0.73900
C1818       C  0.90901897  0.52636952  0.95520209    -0.06900
C1819       C  0.60322228  0.57501401  0.97225750    -0.06500
N1820       N  0.51874879  0.51901304  0.85526929    -0.26000
N1821       N  0.51989232  0.52801942  0.51441353    -0.46800
H1822       H  0.53858224  0.64312039  0.93164570     0.06900
C1823       C  0.88838109  0.93252831  0.86999773    -0.06900
Cl1824     Cl  0.99552988  0.50347890  0.92132984    -0.49900
C1825       C  0.92976398  0.86629554  0.95673709     0.42600
H1826       H  0.55026832  0.56247275  0.82324093     0.06800
N1827       N  0.86989812  0.94831826  0.91067535    -0.46600
C1828       C  0.62916371  0.56193080  0.63465319     0.42500
N1829       N  0.57519341  0.55563975  0.64384411     0.01400
C1830       C  0.96112574  0.97388270  0.76384143    -0.06500
H1831       H  0.48839005  0.88309535  0.70915865     0.06800
C1832       C  0.91712001  0.89230546  0.62191590    -0.06900
Co1833     Co  0.54803875  0.52764919  0.70328946     0.74200
N1834       N  0.50762805  0.94248467  0.70399806    -0.26000
Co1835     Co  0.95804430  0.94378486  0.70176533     0.74100
C1836       C  0.91795009  0.86149013  0.63627225     0.42600
N1837       N  0.97392329  0.99075950  0.60442942     0.01000
N1838       N  0.94005672  0.90958526  0.66489520     0.01100
N1839       N  0.52023202  0.52826629  0.76385413    -0.46900
H1840       H  0.63148801  0.53986428  0.67944587     0.06800
N1841       N  0.54189250  0.97440824  0.70443384     0.01400
N1842       N  0.90913484  0.94642771  0.69906231     0.01100
C1843       C  0.85474066  0.93990364  0.70720092     0.42700
N1844       N  0.50779962  0.52316603  0.60545761    -0.25500
C1845       C  0.56798841  0.60894291  0.72130992    -0.06400
N1846       N  0.60231706  0.56770820  0.62402400    -0.46600
N1847       N  0.88168481  0.93472773  0.71860604    -0.46800
C1848       C  0.56706630  0.63989928  0.70724286     0.42500
N1849       N  0.51136082  0.51143741  0.73834382     0.01400
N1850       N  0.97632437  0.55886360  0.63962175    -0.25500
N1851       N  0.58315548  0.54338314  0.66721531    -0.26000
N1852       N  0.94227038  0.52670793  0.63871074     0.01000
H1853       H  0.99461240  0.61828519  0.63662637     0.06900
H1854       H  0.85327085  0.96121208  0.66190682     0.06900
N1855       N  0.97713688  0.97938873  0.73781624    -0.26100
N1856       N  0.93149364  0.92087994  0.64126922    -0.25700
N1857       N  0.54433546  0.59182660  0.67851338     0.01400
C1858       C  0.55310854  0.92997655  0.71047372     0.42800
C1859       C  0.52454087  0.52982106  0.57968180    -0.06900
N1860       N  0.90132311  0.95799832  0.67525886    -0.25700
H1861       H  0.90637216  0.89275233  0.60088691     0.06900
N1862       N  0.56984447  0.96824134  0.70845926    -0.46900
H1863       H  0.55155346  0.55523963  0.57366162     0.06900
C1864       C  0.93014271  0.57074214  0.63483028     0.42600
C1865       C  0.61671784  0.54608807  0.66342313    -0.06400
Co1866     Co  0.52624534  0.55804277  0.64160642     0.73800
N1867       N  0.96590956  0.97483790  0.57856260    -0.46600
C1868       C  0.98971016  0.50645140  0.78093550     0.42900
N1869       N  0.55218186  0.62719883  0.68078711    -0.46600
Co1870     Co  0.93670050  0.97375692  0.63947975     0.73900
C1871       C  0.86768672  0.95522208  0.67838967    -0.06900
C1872       C  0.51169905  0.91272380  0.70749670    -0.06500
N1873       N  0.55340799  0.58051559  0.70183237    -0.26000
N1874       N  0.93235316  0.87420335  0.66283167    -0.46800
H1875       H  0.93404463  0.94896558  0.77042072     0.06900
C1876       C  0.97167911  0.58840840  0.63728938    -0.06900
Cl1877     Cl  0.99226008  0.50077148  0.67152411    -0.49900
C1878       C  0.99684531  0.99771813  0.56200029     0.42600
H1879       H  0.57883107  0.60817031  0.74220928     0.06800
N1880       N  0.91388942  0.53249061  0.63574801    -0.46600
C1881       C  0.57075828  0.70137389  0.70386459    -0.21300
C1882       C  0.58367898  0.67984892  0.71686807    -0.09300
C1883       C  0.61374267  0.69773315  0.73708220     0.29500
C1884       C  0.63095718  0.73677245  0.74345027    -0.21300
C1885       C  0.61805689  0.75822362  0.73015554    -0.09400
C1886       C  0.58757194  0.74004231  0.71041199     0.29500
F1887       F  0.57537936  0.76008935  0.69610604    -0.19900
H1888       H  0.54790908  0.68835655  0.68808969     0.17900
H1889       H  0.65463081  0.75036490  0.75851995     0.17900
F1890       F  0.62781646  0.67825442  0.74964010    -0.19900
C1891       C  0.79201192  0.93489114  0.70662499    -0.21300
C1892       C  0.81557698  0.92366094  0.71865002    -0.09300
C1893       C  0.80004964  0.89440944  0.73934580     0.29500
C1894       C  0.76086898  0.87480931  0.74601036    -0.21300
C1895       C  0.73696727  0.88475761  0.73273699    -0.09400
C1896       C  0.75312763  0.91579391  0.71358913     0.29500
F1897       F  0.73089819  0.92592829  0.69989631    -0.19900
H1898       H  0.80334001  0.95766935  0.69097124     0.17300
H1899       H  0.74897312  0.85120047  0.76098717     0.17900
F1900       F  0.82206761  0.88321942  0.75191324    -0.19900
C1901       C  0.55383179  0.87073943  0.71881882    -0.21300
C1902       C  0.57369172  0.91085566  0.71763607    -0.09300
C1903       C  0.61332986  0.93245862  0.72351791     0.29500
C1904       C  0.63262510  0.91417439  0.72984433    -0.21300
C1905       C  0.61306346  0.87398924  0.73035478    -0.09400
C1906       C  0.57314349  0.85236952  0.72512213     0.29500
F1907       F  0.55266087  0.81350192  0.72545780    -0.19900
H1908       H  0.52331871  0.85333761  0.71450208     0.17900
H1909       H  0.66322964  0.93174808  0.73388620     0.17900
F1910       F  0.63374253  0.97132363  0.72300372    -0.19900
C1911       C  0.62965244  0.73597437  0.85179572    -0.21300
C1912       C  0.61434131  0.75752519  0.86097990    -0.09300
C1913       C  0.57908035  0.73896973  0.87592312     0.29500
C1914       C  0.56104852  0.70042453  0.88299447    -0.21300
C1915       C  0.57735166  0.67949483  0.87509544    -0.09400
C1916       C  0.61116018  0.69710787  0.85856032     0.29500
F1917       F  0.62774864  0.67759728  0.85064142    -0.19900
H1918       H  0.65658566  0.74951030  0.84015315     0.17900
H1919       H  0.53483627  0.68720228  0.89553635     0.17900
F1920       F  0.56317951  0.75843495  0.88558188    -0.19900
C1921       C  0.79315219  0.92365937  0.89210989    -0.21300
C1922       C  0.81743184  0.91800617  0.87451421    -0.09300
C1923       C  0.80179041  0.89417459  0.85006481     0.29500
C1924       C  0.76225684  0.87482500  0.84457033    -0.21300
C1925       C  0.73817958  0.87983942  0.86281427    -0.09400
C1926       C  0.75401425  0.90489183  0.88636274     0.29500
F1927       F  0.73126166  0.90963691  0.90478273    -0.19900
H1928       H  0.80426404  0.94190069  0.91095471     0.17900
H1929       H  0.75040336  0.85585891  0.82614946     0.17900
F1930       F  0.82408598  0.88857646  0.83187510    -0.19900
C1931       C  0.64112589  0.91885805  0.86452793    -0.21300
C1932       C  0.61932279  0.87864062  0.86419192    -0.09300
C1933       C  0.57941876  0.85932473  0.86912824     0.29500
C1934       C  0.56228741  0.88000095  0.87493079    -0.21300
C1935       C  0.58430629  0.92018097  0.87585855    -0.09400
C1936       C  0.62400016  0.93948290  0.87020438     0.29500
F1937       F  0.64667878  0.97822154  0.86993585    -0.19900
H1938       H  0.67178653  0.93466883  0.86058235     0.17900
H1939       H  0.53165285  0.86439163  0.87899465     0.17900
F1940       F  0.55680370  0.82052631  0.86889112    -0.19900
C1941       C  0.84910951  0.58739892  0.62525837    -0.21300
C1942       C  0.86892042  0.62546090  0.61555428    -0.09300
C1943       C  0.90910205  0.64528455  0.61224897     0.29500
C1944       C  0.92882373  0.62743915  0.61881463    -0.21300
C1945       C  0.90902067  0.58954366  0.62866986    -0.09400
C1946       C  0.86886318  0.56958967  0.63183511     0.29500
F1947       F  0.84867313  0.53314051  0.64184921    -0.19900
H1948       H  0.81827533  0.57150989  0.62836123     0.17900
H1949       H  0.95964619  0.64329807  0.61580783     0.17900
F1950       F  0.92944951  0.68177177  0.60236188    -0.19900
C1951       C  0.85038813  0.76321769  0.60377543    -0.21300
C1952       C  0.86714085  0.74317874  0.61314728    -0.09300
C1953       C  0.90192931  0.76323529  0.62862268     0.29500
C1954       C  0.91847343  0.80188530  0.63546608    -0.21300
C1955       C  0.90137507  0.82162081  0.62656513    -0.09400
C1956       C  0.86744741  0.80218106  0.61020307     0.29500
F1957       F  0.84951916  0.82009327  0.60186479    -0.19900
H1958       H  0.82363236  0.74852999  0.59191408     0.17900
H1959       H  0.94457128  0.81638268  0.64813157     0.17900
F1960       F  0.91913539  0.74524963  0.63848525    -0.19900
C1961       C  0.72827157  0.58154673  0.62133408    -0.21300
C1962       C  0.74635301  0.61749184  0.60788591    -0.09300
C1963       C  0.72393967  0.63222103  0.59967548     0.29500
C1964       C  0.68492609  0.61262217  0.60682136    -0.21300
C1965       C  0.66794090  0.57849932  0.62258306    -0.09400
C1966       C  0.68952541  0.56236149  0.62885731     0.29500
F1967       F  0.67347509  0.52856487  0.64299252    -0.19900
H1968       H  0.74458773  0.56919604  0.62763061     0.17900
H1969       H  0.66857827  0.62527840  0.60146367     0.17900
F1970       F  0.73991315  0.66611463  0.58568011    -0.19900
C1971       C  0.85123999  0.59181274  0.96807370    -0.21300
C1972       C  0.87307579  0.63007383  0.97750410    -0.09300
C1973       C  0.91324041  0.64805165  0.97987302     0.29500
C1974       C  0.93065132  0.62771482  0.97326364    -0.21300
C1975       C  0.90852599  0.58930727  0.96409495    -0.09400
C1976       C  0.86859206  0.57176065  0.96119005     0.29500
F1977       F  0.84598611  0.53548431  0.95107267    -0.19900
H1978       H  0.82042531  0.57724008  0.96542103     0.17900
H1979       H  0.96150492  0.64200674  0.97555329     0.17900
F1980       F  0.93575194  0.68504304  0.98869701    -0.19900
C1981       C  0.87923786  0.81062414  0.98473724    -0.21300
C1982       C  0.91382144  0.82808367  0.96923193    -0.09300
C1983       C  0.93144267  0.80760640  0.96387934     0.29500
C1984       C  0.91334839  0.76937151  0.97206392    -0.21300
C1985       C  0.87701507  0.75063866  0.98529448    -0.09400
C1986       C  0.86072674  0.77207105  0.99258042     0.29500
F1987       F  0.82639687  0.75554751  0.00634887    -0.19900
H1988       H  0.86548055  0.82619285  0.98940260     0.17900
H1989       H  0.92692358  0.75389556  0.96646990     0.17900
F1990       F  0.96576816  0.82428707  0.95010698    -0.19900
C1991       C  0.69608854  0.57704698  0.95655747    -0.21300
C1992       C  0.67436258  0.59110777  0.96773855    -0.09300
C1993       C  0.69217598  0.62307878  0.48630559     0.29500
C1994       C  0.73137121  0.64133065  0.49257958    -0.21300
C1995       C  0.75329734  0.62770875  0.98089900    -0.09400
C1996       C  0.73501968  0.59479337  0.96322204     0.29500
F1997       F  0.75507710  0.58086210  0.95101591    -0.19900
H1998       H  0.68298887  0.55254545  0.94217928     0.17900
H1999       H  0.74476640  0.66658645  0.50619274     0.17900
F2000       F  0.67247255  0.63815623  0.49710633    -0.19900
loop_ 
_geom_bond_atom_site_label_1 
_geom_bond_atom_site_label_2 
_geom_bond_distance 
_geom_bond_site_symmetry_2 
_ccdc_geom_bond_type 
C1            N2   1.356       .  A
C1            N6   1.356       .  A
C1          C472   1.483       .  S
N2            C3   1.354       .  A
C3            N4   1.359       .  A
C3          C495   1.480       .  S
N4            C5   1.361       .  A
C5            N6   1.360       .  A
C5          C485   1.481       .  S
C7            N8   1.356       .  A
C7           N12   1.356       .  A
C7          C192   1.481       .  S
N8            C9   1.357       .  A
C9           N10   1.360       .  A
C9          C202   1.483       .  S
N10          C11   1.360       .  A
C11          N12   1.358       .  A
C11         C212   1.480       .  S
C13          N14   1.355       .  A
C13          N18   1.354       .  A
C13         C182   1.481       .  S
N14          C15   1.355       .  A
C15          N16   1.358       .  A
C15         C175   1.468       .  S
N16          C17   1.361       .  A
C17          N18   1.357       .  A
C17         C162   1.478       .  S
C19          N20   1.356       .  A
C19          N24   1.356       .  A
C19         C155   1.484       .  S
N20          C21   1.356       .  A
C21          N22   1.360       .  A
C21         C145   1.473       .  S
N22          C23   1.359       .  A
C23          N24   1.358       .  A
C23         C135   1.475       .  S
C25          N43   1.353       .  A
C25          C62   1.460       .  S
C25         C185   1.478       .  S
N26          N43   1.324       .  A
N26          N48   1.318       .  A
N26       Co1063   2.084   1_455  S
C27          N52   1.337       .  A
C27          C65   1.459       .  S
C27          H72   1.082       .  S
H28          C69   1.081       .  S
C29         N303   1.339   1_554  A
C29          C33   1.454       .  S
C29          H58   1.082       .  S
Co30         N38   2.088       .  S
Co30         N70   2.086       .  S
Co30         N46   2.071       .  S
Co30        N548   2.065   1_545  S
Co30      Cl1074   2.446   1_455  S
N31          C69   1.341       .  A
N31          N38   1.319       .  A
N31         Co32   2.082       .  S
Co32         N35   2.087       .  S
Co32         N52   2.078       .  S
Co32       N1039   2.079   1_455  S
Co32      Cl1074   2.446   1_455  S
C33        N1571   1.350       .  A
C33         C128   1.460       .  S
N34          N41   1.319       .  A
N34          N64   1.324       .  A
N34         Co67   2.076       .  S
N35        N1553   1.320   1_445  A
N35         N321   1.324       .  A
N36          C65   1.348       .  A
N36          N46   1.323       .  A
H37          C62   1.079       .  S
N38          N59   1.324       .  A
N39          N57   1.318       .  A
N39          N44   1.324       .  A
N39       Co1032   2.079       .  S
C40          N44   1.351       .  A
C40          C68   1.463       .  S
C40         C225   1.479       .  S
N41          C56   1.339       .  A
N41         Co63   2.083       .  S
C42          N70   1.341       .  A
C42        C1045   1.460   1_455  S
C42          H76   1.082       .  S
C45         N566   1.346   1_545  A
C45         C118   1.460       .  S
C45        C1042   1.460       .  S
N46          N52   1.319       .  A
N47          C73   1.341       .  A
N47          N49   1.317       .  A
N47         Co63   2.080       .  S
N48          C62   1.335       .  A
N48        Co530   2.065       .  S
N49          N77   1.321       .  A
N49         Co67   2.078       .  S
H50          C73   1.080       .  S
H51          C68   1.080       .  S
N53         C279   1.339       .  A
N53        N1535   1.320       .  A
N53         Co67   2.074       .  S
N54          N66   1.322       .  A
N54        N1570   1.320       .  A
N54         Co63   2.074       .  S
C55          N59   1.351       .  A
C55          C69   1.461       .  S
C55         C242   1.478       .  S
C56          C75   1.461       .  S
C56          H60   1.081       .  S
N57          C68   1.336       .  A
N57        Co567   2.074   1_545  S
C61          N77   1.351       .  A
C61          C73   1.464       .  S
C61         C172   1.481       .  S
Co63       N1026   2.084       .  S
Co63       Cl574   2.446       .  S
N64          C75   1.348       .  A
C65         C165   1.468       .  S
N66         C545   1.346       .  A
Co67        N557   2.074       .  S
Co67       Cl574   2.445       .  S
N70        N1554   1.320   1_445  A
N71        C1533   1.350   1_445  A
N71         N285   1.324   1_554  A
Cl74      Co1030   2.446       .  S
Cl74      Co1032   2.446       .  S
Cl74       Co563   2.446   1_545  S
Cl74       Co567   2.445   1_545  S
C75         C232   1.471       .  S
C78          N96   1.349       .  A
C78         C115   1.461       .  S
C78         C215   1.472       .  S
N79          N96   1.324       .  A
N79         N101   1.319       .  A
N79        Co116   2.077       .  S
C80         N105   1.339       .  A
C80         C618   1.459       .  S
C80         H125   1.082       .  S
H81         C122   1.081   1_655  S
C82         N106   1.342       .  A
C82          C86   1.460       .  S
C82         H111   1.081       .  S
Co83        N101   2.081       .  S
Co83        N123   2.078       .  S
Co83         N99   2.076       .  S
Co83        N591   2.079   1_545  S
Co83      Cl1127   2.445   1_455  S
N84         C122   1.340       .  A
N84          N91   1.319       .  A
N84       Co1085   2.078   1_455  S
Co85         N88   2.087       .  S
Co85        N105   2.084       .  S
Co85         N92   2.082       .  S
Co85       N1084   2.078       .  S
Co85       Cl627   2.448       .  S
C86         N124   1.350       .  A
C86         C205   1.475       .  S
N87         N117   1.325       .  A
N87        N1594   1.320       .  A
N87        Co120   2.087       .  S
N88         N106   1.320       .  A
N88         N124   1.324       .  A
N89        C1118   1.347   1_455  A
N89          N99   1.323       .  A
H90         C115   1.081       .  S
N91         N112   1.322       .  A
N91        Co583   2.079       .  S
N92         N110   1.319       .  A
N92          N97   1.325       .  A
C93          N97   1.351       .  A
C93         C121   1.460       .  S
C93         C142   1.476       .  S
N94         C109   1.337       .  A
N94        N1587   1.320   1_445  A
N94        Co116   2.073       .  S
C95         N123   1.341       .  A
C95          C98   1.461       .  S
C95         H129   1.081       .  S
C98         N119   1.350       .  A
C98         C132   1.476       .  S
N99        N1605   1.320   1_445  A
N100        C126   1.340       .  A
N100        N102   1.319       .  A
N100      Co1116   2.080       .  S
N101        C115   1.339       .  A
N102        N130   1.322       .  A
N102       Co620   2.077   1_545  S
H103        C126   1.081       .  S
H104        C121   1.081       .  S
N105       N1599   1.320       .  A
N106       Co120   2.083       .  S
N107        N119   1.322       .  A
N107        N123   1.318       .  A
N107       Co116   2.080       .  S
C108        N112   1.349       .  A
C108        C122   1.462       .  S
C108        C152   1.478       .  S
C109       C1628   1.453   1_445  S
C109        H113   1.082       .  S
N110        C121   1.337       .  A
N110       Co120   2.075       .  S
C114        N130   1.348       .  A
C114        C126   1.463       .  S
C114        C195   1.476       .  S
Co116      N1100   2.080   1_455  S
Co116     Cl1127   2.447   1_455  S
N117        C128   1.351       .  A
C118       N1089   1.347       .  A
C118        C580   1.459   1_545  S
Co120       N602   2.077       .  S
Co120      Cl627   2.447       .  S
Cl127     Co1083   2.445       .  S
Cl127      Co585   2.448   1_545  S
Cl127     Co1116   2.447       .  S
Cl127      Co620   2.447   1_545  S
C128       C1609   1.453       .  S
C131        H138   1.084       .  S
C131        C132   1.401       .  A
C131        C136   1.392       .  A
C132        C133   1.410       .  A
C133        C134   1.402       .  A
C133        F140   1.356       .  S
C134        H139   1.083       .  S
C134        C135   1.404       .  A
C135        C136   1.406       .  A
C136        F137   1.358       .  S
C141        H148   1.083       .  S
C141        C142   1.403       .  A
C141        C146   1.393       .  A
C142        C143   1.408       .  A
C143        C144   1.399       .  A
C143        F150   1.357       .  S
C144        H149   1.083       .  S
C144        C145   1.403       .  A
C145        C146   1.408       .  A
C146        F147   1.358       .  S
C151        H158   1.082       .  S
C151        C152   1.404       .  A
C151        C156   1.397       .  A
C152        C153   1.407       .  A
C153        C154   1.394       .  A
C153        F160   1.357       .  S
C154        H159   1.083       .  S
C154        C155   1.406       .  A
C155        C156   1.411       .  A
C156        F157   1.357       .  S
C161        H168   1.083       .  S
C161        C162   1.405       .  A
C161        C166   1.398       .  A
C162        C163   1.411       .  A
C163        C164   1.392       .  A
C163        F170   1.357       .  S
C164        H169   1.084       .  S
C164        C165   1.399       .  A
C165        C166   1.406       .  A
C166        F167   1.357       .  S
C171        H178   1.083       .  S
C171        C172   1.404       .  A
C171        C176   1.391       .  A
C172        C173   1.412       .  A
C173        C174   1.402       .  A
C173        F180   1.355       .  S
C174        H179   1.084       .  S
C174        C175   1.401       .  A
C175        C176   1.403       .  A
C176        F177   1.358       .  S
C181        H188   1.083       .  S
C181        C182   1.404       .  A
C181        C186   1.393       .  A
C182        C183   1.410       .  A
C183        C184   1.396       .  A
C183        F190   1.356       .  S
C184        H189   1.083       .  S
C184        C185   1.403       .  A
C185        C186   1.408       .  A
C186        F187   1.355       .  S
C191        H198   1.083       .  S
C191        C192   1.406       .  A
C191        C196   1.396       .  A
C192        C193   1.409       .  A
C193        C194   1.396       .  A
C193        F200   1.357       .  S
C194        H199   1.082       .  S
C194        C195   1.403       .  A
C195        C196   1.407       .  A
C196        F197   1.358       .  S
C201        H208   1.083       .  S
C201        C202   1.406       .  A
C201        C206   1.400       .  A
C202        C203   1.411       .  A
C203        C204   1.396       .  A
C203        F210   1.357       .  S
C204        H209   1.084       .  S
C204        C205   1.400       .  A
C205        C206   1.407       .  A
C206        F207   1.357       .  S
C211        H218   1.083       .  S
C211        C212   1.407       .  A
C211        C216   1.395       .  A
C212        C213   1.408       .  A
C213        C214   1.399       .  A
C213        F220   1.358       .  S
C214        H219   1.083       .  S
C214        C215   1.404       .  A
C215        C216   1.402       .  A
C216        F217   1.357       .  S
C221        H228   1.083       .  S
C221        C222   1.405       .  A
C221        C226   1.391       .  A
C222        C251   1.483       .  S
C222        C223   1.410       .  A
C223        C224   1.401       .  A
C223        F230   1.358       .  S
C224        H229   1.083       .  S
C224        C225   1.406       .  A
C225        C226   1.406       .  A
C226        F227   1.355       .  S
C231        H238   1.083       .  S
C231        C232   1.404       .  A
C231        C236   1.400       .  A
C232        C233   1.402       .  A
C233        C234   1.394       .  A
C233        F240   1.357       .  S
C234        H239   1.083       .  S
C234        C235   1.407       .  A
C235        C255   1.481       .  S
C235        C236   1.409       .  A
C236        F237   1.358       .  S
C241        H248   1.084       .  S
C241        C242   1.401       .  A
C241        C246   1.396       .  A
C242        C493   1.409       .  A
C243        C244   1.400       .  A
C243        C492   1.409       .  A
C243        F250   1.356       .  S
C244        H249   1.083   1_556  S
C244        C495   1.404       .  A
C245        C253   1.480       .  S
C245        C246   1.410       .  A
C245        C494   1.404       .  A
C246        F247   1.358       .  S
C251        N252   1.356       .  A
C251        N256   1.356       .  A
N252        C253   1.354       .  A
C253        N254   1.359       .  A
N254        C255   1.361       .  A
C255        N256   1.360       .  A
C257        N258   1.356       .  A
C257        N262   1.356       .  A
C257        C442   1.481       .  S
N258        C259   1.357       .  A
C259        N260   1.360       .  A
C259        C452   1.483       .  S
N260        C261   1.360       .  A
C261        N262   1.358       .  A
C261        C462   1.480       .  S
C263        N264   1.355       .  A
C263        N268   1.354       .  A
C263        C432   1.481       .  S
N264        C265   1.355       .  A
C265        N266   1.358       .  A
C265        C425   1.468       .  S
N266        C267   1.361       .  A
C267        N268   1.357       .  A
C267        C412   1.478       .  S
C269        N270   1.356       .  A
C269        N274   1.356       .  A
C269        C405   1.484       .  S
N270        C271   1.356       .  A
C271        N272   1.360       .  A
C271        C395   1.473       .  S
N272        C273   1.359       .  A
C273        N274   1.358       .  A
C273        C385   1.475       .  S
C275        N293   1.353       .  A
C275        C312   1.460       .  S
C275        C435   1.478       .  S
N276        N293   1.324       .  A
N276        N298   1.318       .  A
N276      Co1313   2.084   1_455  S
C277        N302   1.337       .  A
C277        C315   1.459       .  S
C277        H322   1.082       .  S
H278        C319   1.081       .  S
C279        C283   1.454       .  S
C279        H308   1.082       .  S
Co280       N798   2.065   1_545  S
Co280       N288   2.088       .  S
Co280       N320   2.086       .  S
Co280       N296   2.071       .  S
Co280     Cl1324   2.446   1_455  S
N281        C319   1.341       .  A
N281        N288   1.319       .  A
N281       Co282   2.082       .  S
Co282       N285   2.087       .  S
Co282       N302   2.078       .  S
Co282      N1289   2.079   1_455  S
Co282     Cl1324   2.446   1_455  S
C283       N1821   1.350       .  A
C283        C378   1.460       .  S
N284        N291   1.319       .  A
N284        N314   1.324       .  A
N284       Co317   2.076       .  S
N285       N1803   1.320   1_445  A
N286        C315   1.348       .  A
N286        N296   1.323       .  A
H287        C312   1.079       .  S
N288        N309   1.324       .  A
N289        N307   1.318       .  A
N289        N294   1.324       .  A
N289      Co1282   2.079       .  S
C290        N294   1.351       .  A
C290        C318   1.463       .  S
C290        C475   1.479       .  S
N291        C306   1.339       .  A
N291       Co313   2.083       .  S
C292        N320   1.341       .  A
C292       C1295   1.460   1_455  S
C292        H326   1.082       .  S
C295        N816   1.346   1_545  A
C295       C1292   1.460       .  S
C295        C368   1.460       .  S
N296        N302   1.319       .  A
N297        C323   1.341       .  A
N297        N299   1.317       .  A
N297       Co313   2.080       .  S
N298        C312   1.335       .  A
N298       Co780   2.065       .  S
N299        N327   1.321       .  A
N299       Co317   2.078       .  S
H300        C323   1.080       .  S
H301        C318   1.080       .  S
N303       N1785   1.320       .  A
N303       Co317   2.074       .  S
N304        N316   1.322       .  A
N304       N1820   1.320       .  A
N304       Co313   2.074       .  S
C305        N309   1.351       .  A
C305        C319   1.461       .  S
C305        C492   1.478       .  S
C306        C325   1.461       .  S
C306        H310   1.081       .  S
N307        C318   1.336       .  A
N307       Co817   2.074   1_545  S
C311        N327   1.351       .  A
C311        C323   1.464       .  S
C311        C422   1.481       .  S
Co313      N1276   2.084       .  S
Co313      Cl824   2.446       .  S
N314        C325   1.348       .  A
C315        C415   1.468       .  S
N316        C795   1.346       .  A
Co317       N807   2.074       .  S
Co317      Cl824   2.445       .  S
N320       N1804   1.320   1_445  A
N321       C1783   1.350   1_445  A
Cl324     Co1280   2.446       .  S
Cl324     Co1282   2.446       .  S
Cl324      Co813   2.446   1_545  S
Cl324      Co817   2.445   1_545  S
C325        C482   1.471       .  S
C328        N346   1.349       .  A
C328        C365   1.461       .  S
C328        C465   1.472       .  S
N329        N346   1.324       .  A
N329        N351   1.319       .  A
N329       Co366   2.077       .  S
C330        N355   1.339       .  A
C330        C868   1.459       .  S
C330        H375   1.082       .  S
H331        C372   1.081   1_655  S
C332        N356   1.342       .  A
C332        C336   1.460       .  S
C332        H361   1.081       .  S
Co333       N351   2.081       .  S
Co333       N841   2.079   1_545  S
Co333       N373   2.078       .  S
Co333       N349   2.076       .  S
Co333     Cl1377   2.445   1_455  S
N334        C372   1.340       .  A
N334        N341   1.319       .  A
N334      Co1335   2.078   1_455  S
Co335      N1334   2.078       .  S
Co335       N338   2.087       .  S
Co335       N355   2.084       .  S
Co335       N342   2.082       .  S
Co335      Cl877   2.448       .  S
C336        N374   1.350       .  A
C336        C455   1.475       .  S
N337       N1844   1.320       .  A
N337        N367   1.325       .  A
N337       Co370   2.087       .  S
N338        N356   1.320       .  A
N338        N374   1.324       .  A
N339       C1368   1.347   1_455  A
N339        N349   1.323       .  A
H340        C365   1.081       .  S
N341        N362   1.322       .  A
N341       Co833   2.079       .  S
N342        N360   1.319       .  A
N342        N347   1.325       .  A
C343        N347   1.351       .  A
C343        C371   1.460       .  S
C343        C392   1.476       .  S
N344        C359   1.337       .  A
N344       N1837   1.320   1_445  A
N344       Co366   2.073       .  S
C345        N373   1.341       .  A
C345        C348   1.461       .  S
C345        H379   1.081       .  S
C348        N369   1.350       .  A
C348        C382   1.476       .  S
N349       N1855   1.320   1_445  A
N350        C376   1.340       .  A
N350        N352   1.319       .  A
N350      Co1366   2.080       .  S
N351        C365   1.339       .  A
N352        N380   1.322       .  A
N352       Co870   2.077   1_545  S
H353        C376   1.081       .  S
H354        C371   1.081       .  S
N355       N1849   1.320       .  A
N356       Co370   2.083       .  S
N357        N369   1.322       .  A
N357        N373   1.318       .  A
N357       Co366   2.080       .  S
C358        N362   1.349       .  A
C358        C372   1.462       .  S
C358        C402   1.478       .  S
C359       C1878   1.453   1_445  S
C359        H363   1.082       .  S
N360        C371   1.337       .  A
N360       Co370   2.075       .  S
C364        N380   1.348       .  A
C364        C376   1.463       .  S
C364        C445   1.476       .  S
Co366      N1350   2.080   1_455  S
Co366     Cl1377   2.447   1_455  S
N367        C378   1.351       .  A
C368       N1339   1.347       .  A
C368        C830   1.459   1_545  S
Co370       N852   2.077       .  S
Co370      Cl877   2.447       .  S
Cl377     Co1333   2.445       .  S
Cl377      Co835   2.448   1_545  S
Cl377     Co1366   2.447       .  S
Cl377      Co870   2.447   1_545  S
C378       C1859   1.453       .  S
C381        H388   1.084       .  S
C381        C382   1.401       .  A
C381        C386   1.392       .  A
C382        C383   1.410       .  A
C383        C384   1.402       .  A
C383        F390   1.356       .  S
C384        H389   1.083       .  S
C384        C385   1.404       .  A
C385        C386   1.406       .  A
C386        F387   1.358       .  S
C391        H398   1.083       .  S
C391        C392   1.403       .  A
C391        C396   1.393       .  A
C392        C393   1.408       .  A
C393        C394   1.399       .  A
C393        F400   1.357       .  S
C394        H399   1.083       .  S
C394        C395   1.403       .  A
C395        C396   1.408       .  A
C396        F397   1.358       .  S
C401        H408   1.082       .  S
C401        C402   1.404       .  A
C401        C406   1.397       .  A
C402        C403   1.407       .  A
C403        C404   1.394       .  A
C403        F410   1.357       .  S
C404        H409   1.083       .  S
C404        C405   1.406       .  A
C405        C406   1.411       .  A
C406        F407   1.357       .  S
C411        H418   1.083       .  S
C411        C412   1.405       .  A
C411        C416   1.398       .  A
C412        C413   1.411       .  A
C413        C414   1.392       .  A
C413        F420   1.357       .  S
C414        H419   1.084       .  S
C414        C415   1.399       .  A
C415        C416   1.406       .  A
C416        F417   1.357       .  S
C421        H428   1.083       .  S
C421        C422   1.404       .  A
C421        C426   1.391       .  A
C422        C423   1.412       .  A
C423        C424   1.402       .  A
C423        F430   1.355       .  S
C424        H429   1.084       .  S
C424        C425   1.401       .  A
C425        C426   1.403       .  A
C426        F427   1.358       .  S
C431        H438   1.083       .  S
C431        C432   1.404       .  A
C431        C436   1.393       .  A
C432        C433   1.410       .  A
C433        C434   1.396       .  A
C433        F440   1.356       .  S
C434        H439   1.083       .  S
C434        C435   1.403       .  A
C435        C436   1.408       .  A
C436        F437   1.355       .  S
C441        H448   1.083       .  S
C441        C442   1.406       .  A
C441        C446   1.396       .  A
C442        C443   1.409       .  A
C443        C444   1.396       .  A
C443        F450   1.357       .  S
C444        H449   1.082       .  S
C444        C445   1.403       .  A
C445        C446   1.407       .  A
C446        F447   1.358       .  S
C451        H458   1.083       .  S
C451        C452   1.406       .  A
C451        C456   1.400       .  A
C452        C453   1.411       .  A
C453        C454   1.396       .  A
C453        F460   1.357       .  S
C454        H459   1.084       .  S
C454        C455   1.400       .  A
C455        C456   1.407       .  A
C456        F457   1.357       .  S
C461        H468   1.083       .  S
C461        C462   1.407       .  A
C461        C466   1.395       .  A
C462        C463   1.408       .  A
C463        C464   1.399       .  A
C463        F470   1.358       .  S
C464        H469   1.083       .  S
C464        C465   1.404       .  A
C465        C466   1.402       .  A
C466        F467   1.357       .  S
C471        H478   1.083       .  S
C471        C472   1.405       .  A
C471        C476   1.391       .  A
C472        C473   1.410       .  A
C473        C474   1.401       .  A
C473        F480   1.358       .  S
C474        H479   1.083       .  S
C474        C475   1.406       .  A
C475        C476   1.406       .  A
C476        F477   1.355       .  S
C481        H488   1.083       .  S
C481        C482   1.404       .  A
C481        C486   1.400       .  A
C482        C483   1.402       .  A
C483        C484   1.394       .  A
C483        F490   1.357       .  S
C484        H489   1.083       .  S
C484        C485   1.407       .  A
C485        C486   1.409       .  A
C486        F487   1.358   1_556  S
C491        H498   1.084       .  S
C491        C492   1.401       .  A
C491        C496   1.396       .  A
C493        C494   1.400       .  A
C493        F500   1.356       .  S
C494        H499   1.083       .  S
C495        C496   1.410       .  A
C496        F497   1.358       .  S
C501        N502   1.356       .  A
C501        N506   1.356       .  A
C501        C972   1.483       .  S
N502        C503   1.354       .  A
C503        N504   1.359       .  A
C503        C995   1.480       .  S
N504        C505   1.361       .  A
C505        N506   1.360       .  A
C505        C985   1.481       .  S
C507        N508   1.356       .  A
C507        N512   1.356       .  A
C507        C692   1.481       .  S
N508        C509   1.357       .  A
C509        N510   1.360       .  A
C509        C702   1.483       .  S
N510        C511   1.360       .  A
C511        N512   1.358       .  A
C511        C712   1.480       .  S
C513        N514   1.355       .  A
C513        N518   1.354       .  A
C513        C682   1.481       .  S
N514        C515   1.355       .  A
C515        N516   1.358       .  A
C515        C675   1.468       .  S
N516        C517   1.361       .  A
C517        N518   1.357       .  A
C517        C662   1.478       .  S
C519        N520   1.356       .  A
C519        N524   1.356       .  A
C519        C655   1.484       .  S
N520        C521   1.356       .  A
C521        N522   1.360       .  A
C521        C645   1.473       .  S
N522        C523   1.359       .  A
C523        N524   1.358       .  A
C523        C635   1.475       .  S
C525        N543   1.353       .  A
C525        C562   1.460       .  S
C525        C685   1.478       .  S
N526        N543   1.324       .  A
N526        N548   1.318       .  A
N526      Co1563   2.084   1_455  S
C527        N552   1.337       .  A
C527        C565   1.459       .  S
C527        H572   1.082       .  S
H528        C569   1.081       .  S
C529        N803   1.339   1_554  A
C529        C533   1.454       .  S
C529        H558   1.082       .  S
Co530       N538   2.088       .  S
Co530       N570   2.086       .  S
Co530       N546   2.071       .  S
Co530     Cl1574   2.446   1_455  S
N531        C569   1.341       .  A
N531        N538   1.319       .  A
N531       Co532   2.082       .  S
Co532       N535   2.087       .  S
Co532       N552   2.078       .  S
Co532      N1539   2.079   1_455  S
Co532     Cl1574   2.446   1_455  S
C533       N1071   1.350   1_565  A
C533        C628   1.460       .  S
N534        N541   1.319       .  A
N534        N564   1.324       .  A
N534       Co567   2.076       .  S
N535       N1053   1.320   1_455  A
N535        N821   1.324       .  A
N536        C565   1.348       .  A
N536        N546   1.323       .  A
H537        C562   1.079   1_545  S
N538        N559   1.324       .  A
N539        N557   1.318       .  A
N539        N544   1.324       .  A
N539      Co1532   2.079       .  S
C540        N544   1.351       .  A
C540        C568   1.463       .  S
C540        C725   1.479       .  S
N541        C556   1.339       .  A
N541       Co563   2.083       .  S
C542        N570   1.341       .  A
C542       C1545   1.460   1_455  S
C542        H576   1.082       .  S
C545       C1542   1.460       .  S
C545        C618   1.460       .  S
N546        N552   1.319       .  A
N547        C573   1.341       .  A
N547        N549   1.317       .  A
N547       Co563   2.080       .  S
N548        C562   1.335       .  A
N549        N577   1.321       .  A
N549       Co567   2.078       .  S
H550        C573   1.080       .  S
H551        C568   1.080       .  S
N553        C779   1.339       .  A
N553       N1035   1.320   1_565  A
N553       Co567   2.074       .  S
N554        N566   1.322       .  A
N554       N1070   1.320   1_565  A
N554       Co563   2.074       .  S
C555        N559   1.351       .  A
C555        C569   1.461       .  S
C555        C742   1.478       .  S
C556        C575   1.461       .  S
C556        H560   1.081       .  S
N557        C568   1.336       .  A
C561        N577   1.351       .  A
C561        C573   1.464       .  S
C561        C672   1.481       .  S
Co563      N1526   2.084       .  S
N564        C575   1.348       .  A
C565        C665   1.468       .  S
N570       N1054   1.320   1_455  A
N571       C1033   1.350   1_455  A
N571        N785   1.324   1_554  A
Cl574     Co1530   2.446       .  S
Cl574     Co1532   2.446       .  S
C575        C732   1.471       .  S
C578        N596   1.349       .  A
C578        C615   1.461       .  S
C578        C715   1.472       .  S
N579        N596   1.324       .  A
N579        N601   1.319       .  A
N579       Co616   2.077       .  S
C580        N605   1.339       .  A
C580        H625   1.082       .  S
H581        C622   1.081   1_655  S
C582        N606   1.342       .  A
C582        C586   1.460       .  S
C582        H611   1.081       .  S
Co583       N601   2.081       .  S
Co583       N623   2.078       .  S
Co583       N599   2.076       .  S
Co583     Cl1627   2.445   1_455  S
N584        C622   1.340       .  A
N584        N591   1.319       .  A
N584      Co1585   2.078   1_455  S
Co585      N1584   2.078       .  S
Co585       N588   2.087       .  S
Co585       N605   2.084       .  S
Co585       N592   2.082       .  S
C586        N624   1.350       .  A
C586        C705   1.475       .  S
N587       N1094   1.320   1_565  A
N587        N617   1.325       .  A
N587       Co620   2.087       .  S
N588        N606   1.320       .  A
N588        N624   1.324       .  A
N589       C1618   1.347   1_455  A
N589        N599   1.323       .  A
H590        C615   1.081       .  S
N591        N612   1.322       .  A
N592        N610   1.319       .  A
N592        N597   1.325       .  A
C593        N597   1.351       .  A
C593        C621   1.460       .  S
C593        C642   1.476       .  S
N594        C609   1.337       .  A
N594       N1087   1.320   1_455  A
N594       Co616   2.073       .  S
C595        N623   1.341       .  A
C595        C598   1.461       .  S
C595        H629   1.081       .  S
C598        N619   1.350       .  A
C598        C632   1.476       .  S
N599       N1105   1.320   1_455  A
N600        C626   1.340       .  A
N600        N602   1.319       .  A
N600      Co1616   2.080       .  S
N601        C615   1.339       .  A
N602        N630   1.322       .  A
H603        C626   1.081       .  S
H604        C621   1.081       .  S
N605       N1099   1.320   1_565  A
N606       Co620   2.083       .  S
N607        N619   1.322       .  A
N607        N623   1.318       .  A
N607       Co616   2.080       .  S
C608        N612   1.349       .  A
C608        C622   1.462       .  S
C608        C652   1.478       .  S
C609       C1128   1.453   1_455  S
C609        H613   1.082       .  S
N610        C621   1.337       .  A
N610       Co620   2.075       .  S
C614        N630   1.348       .  A
C614        C626   1.463       .  S
C614        C695   1.476       .  S
Co616      N1600   2.080   1_455  S
Co616     Cl1627   2.447   1_455  S
N617        C628   1.351       .  A
C618       N1589   1.347       .  A
Cl627     Co1583   2.445       .  S
Cl627     Co1616   2.447       .  S
C628       C1109   1.453   1_565  S
C631        H638   1.084       .  S
C631        C632   1.401       .  A
C631        C636   1.392       .  A
C632        C633   1.410       .  A
C633        C634   1.402       .  A
C633        F640   1.356       .  S
C634        H639   1.083       .  S
C634        C635   1.404       .  A
C635        C636   1.406       .  A
C636        F637   1.358       .  S
C641        H648   1.083       .  S
C641        C642   1.403       .  A
C641        C646   1.393       .  A
C642        C643   1.408       .  A
C643        C644   1.399       .  A
C643        F650   1.357       .  S
C644        H649   1.083       .  S
C644        C645   1.403       .  A
C645        C646   1.408       .  A
C646        F647   1.358       .  S
C651        H658   1.082       .  S
C651        C652   1.404       .  A
C651        C656   1.397       .  A
C652        C653   1.407       .  A
C653        C654   1.394       .  A
C653        F660   1.357       .  S
C654        H659   1.083       .  S
C654        C655   1.406       .  A
C655        C656   1.411       .  A
C656        F657   1.357       .  S
C661        H668   1.083       .  S
C661        C662   1.405       .  A
C661        C666   1.398       .  A
C662        C663   1.411       .  A
C663        C664   1.392       .  A
C663        F670   1.357       .  S
C664        H669   1.084       .  S
C664        C665   1.399       .  A
C665        C666   1.406       .  A
C666        F667   1.357       .  S
C671        H678   1.083       .  S
C671        C672   1.404       .  A
C671        C676   1.391       .  A
C672        C673   1.412       .  A
C673        C674   1.402       .  A
C673        F680   1.355       .  S
C674        H679   1.084       .  S
C674        C675   1.401       .  A
C675        C676   1.403       .  A
C676        F677   1.358       .  S
C681        H688   1.083       .  S
C681        C682   1.404       .  A
C681        C686   1.393       .  A
C682        C683   1.410       .  A
C683        C684   1.396       .  A
C683        F690   1.356       .  S
C684        H689   1.083       .  S
C684        C685   1.403       .  A
C685        C686   1.408       .  A
C686        F687   1.355       .  S
C691        H698   1.083       .  S
C691        C692   1.406       .  A
C691        C696   1.396       .  A
C692        C693   1.409       .  A
C693        C694   1.396       .  A
C693        F700   1.357       .  S
C694        H699   1.082       .  S
C694        C695   1.403       .  A
C695        C696   1.407       .  A
C696        F697   1.358       .  S
C701        H708   1.083       .  S
C701        C702   1.406       .  A
C701        C706   1.400       .  A
C702        C703   1.411       .  A
C703        C704   1.396       .  A
C703        F710   1.357       .  S
C704        H709   1.084       .  S
C704        C705   1.400       .  A
C705        C706   1.407       .  A
C706        F707   1.357       .  S
C711        H718   1.083       .  S
C711        C712   1.407       .  A
C711        C716   1.395       .  A
C712        C713   1.408       .  A
C713        C714   1.399       .  A
C713        F720   1.358       .  S
C714        H719   1.083       .  S
C714        C715   1.404       .  A
C715        C716   1.402       .  A
C716        F717   1.357       .  S
C721        H728   1.083       .  S
C721        C722   1.405       .  A
C721        C726   1.391       .  A
C722        C751   1.483       .  S
C722        C723   1.410       .  A
C723        C724   1.401       .  A
C723        F730   1.358       .  S
C724        H729   1.083       .  S
C724        C725   1.406       .  A
C725        C726   1.406       .  A
C726        F727   1.355       .  S
C731        H738   1.083       .  S
C731        C732   1.404       .  A
C731        C736   1.400       .  A
C732        C733   1.402       .  A
C733        C734   1.394       .  A
C733        F740   1.357       .  S
C734        H739   1.083       .  S
C734        C735   1.407       .  A
C735        C755   1.481       .  S
C735        C736   1.409       .  A
C736        F737   1.358       .  S
C741        H748   1.084       .  S
C741        C742   1.401       .  A
C741        C746   1.396       .  A
C742        C993   1.409       .  A
C743        C992   1.409       .  A
C743        C744   1.400       .  A
C743        F750   1.356       .  S
C744        H749   1.083   1_556  S
C744        C995   1.404       .  A
C745        C753   1.480       .  S
C745        C994   1.404       .  A
C745        C746   1.410       .  A
C746        F747   1.358       .  S
C751        N752   1.356       .  A
C751        N756   1.356       .  A
N752        C753   1.354       .  A
C753        N754   1.359       .  A
N754        C755   1.361       .  A
C755        N756   1.360       .  A
C757        N758   1.356       .  A
C757        N762   1.356       .  A
C757        C942   1.481       .  S
N758        C759   1.357       .  A
C759        N760   1.360       .  A
C759        C952   1.483       .  S
N760        C761   1.360       .  A
C761        N762   1.358       .  A
C761        C962   1.480       .  S
C763        N764   1.355       .  A
C763        N768   1.354       .  A
C763        C932   1.481       .  S
N764        C765   1.355       .  A
C765        N766   1.358       .  A
C765        C925   1.468       .  S
N766        C767   1.361       .  A
C767        N768   1.357       .  A
C767        C912   1.478       .  S
C769        N770   1.356       .  A
C769        N774   1.356       .  A
C769        C905   1.484       .  S
N770        C771   1.356       .  A
C771        N772   1.360       .  A
C771        C895   1.473       .  S
N772        C773   1.359       .  A
C773        N774   1.358       .  A
C773        C885   1.475       .  S
C775        N793   1.353       .  A
C775        C812   1.460       .  S
C775        C935   1.478       .  S
N776        N793   1.324       .  A
N776        N798   1.318       .  A
N776      Co1813   2.084   1_455  S
C777        N802   1.337       .  A
C777        C815   1.459       .  S
C777        H822   1.082       .  S
H778        C819   1.081       .  S
C779        C783   1.454       .  S
C779        H808   1.082       .  S
Co780       N788   2.088       .  S
Co780       N820   2.086       .  S
Co780       N796   2.071       .  S
Co780     Cl1824   2.446   1_455  S
N781        C819   1.341       .  A
N781        N788   1.319       .  A
N781       Co782   2.082       .  S
Co782       N785   2.087       .  S
Co782       N802   2.078       .  S
Co782      N1789   2.079   1_455  S
Co782     Cl1824   2.446   1_455  S
C783       N1321   1.350   1_565  A
C783        C878   1.460       .  S
N784        N791   1.319       .  A
N784        N814   1.324       .  A
N784       Co817   2.076       .  S
N785       N1303   1.320   1_455  A
N786        C815   1.348       .  A
N786        N796   1.323       .  A
H787        C812   1.079   1_545  S
N788        N809   1.324       .  A
N789        N807   1.318       .  A
N789        N794   1.324       .  A
N789      Co1782   2.079       .  S
C790        N794   1.351       .  A
C790        C818   1.463       .  S
C790        C975   1.479       .  S
N791        C806   1.339       .  A
N791       Co813   2.083       .  S
C792        N820   1.341       .  A
C792       C1795   1.460   1_455  S
C792        H826   1.082       .  S
C795       C1792   1.460       .  S
C795        C868   1.460       .  S
N796        N802   1.319       .  A
N797        C823   1.341       .  A
N797        N799   1.317       .  A
N797       Co813   2.080       .  S
N798        C812   1.335       .  A
N799        N827   1.321       .  A
N799       Co817   2.078       .  S
H800        C823   1.080       .  S
H801        C818   1.080       .  S
N803       N1285   1.320   1_565  A
N803       Co817   2.074       .  S
N804        N816   1.322       .  A
N804       N1320   1.320   1_565  A
N804       Co813   2.074       .  S
C805        N809   1.351       .  A
C805        C819   1.461       .  S
C805        C992   1.478       .  S
C806        C825   1.461       .  S
C806        H810   1.081       .  S
N807        C818   1.336       .  A
C811        N827   1.351       .  A
C811        C823   1.464       .  S
C811        C922   1.481       .  S
Co813      N1776   2.084       .  S
N814        C825   1.348       .  A
C815        C915   1.468       .  S
N820       N1304   1.320   1_455  A
N821       C1283   1.350   1_455  A
Cl824     Co1780   2.446       .  S
Cl824     Co1782   2.446       .  S
C825        C982   1.471       .  S
C828        N846   1.349       .  A
C828        C865   1.461       .  S
C828        C965   1.472       .  S
N829        N846   1.324       .  A
N829        N851   1.319       .  A
N829       Co866   2.077       .  S
C830        N855   1.339       .  A
C830        H875   1.082       .  S
H831        C872   1.081   1_655  S
C832        N856   1.342       .  A
C832        C836   1.460       .  S
C832        H861   1.081       .  S
Co833       N851   2.081       .  S
Co833       N873   2.078       .  S
Co833       N849   2.076       .  S
Co833     Cl1877   2.445   1_455  S
N834        C872   1.340       .  A
N834        N841   1.319       .  A
N834      Co1835   2.078   1_455  S
Co835      N1834   2.078       .  S
Co835       N838   2.087       .  S
Co835       N855   2.084       .  S
Co835       N842   2.082       .  S
C836        N874   1.350       .  A
C836        C955   1.475       .  S
N837       N1344   1.320   1_565  A
N837        N867   1.325       .  A
N837       Co870   2.087       .  S
N838        N856   1.320       .  A
N838        N874   1.324       .  A
N839       C1868   1.347   1_455  A
N839        N849   1.323       .  A
H840        C865   1.081       .  S
N841        N862   1.322       .  A
N842        N860   1.319       .  A
N842        N847   1.325       .  A
C843        N847   1.351       .  A
C843        C871   1.460       .  S
C843        C892   1.476       .  S
N844        C859   1.337       .  A
N844       N1337   1.320   1_455  A
N844       Co866   2.073       .  S
C845        N873   1.341       .  A
C845        C848   1.461       .  S
C845        H879   1.081       .  S
C848        N869   1.350       .  A
C848        C882   1.476       .  S
N849       N1355   1.320   1_455  A
N850        C876   1.340       .  A
N850        N852   1.319       .  A
N850      Co1866   2.080       .  S
N851        C865   1.339       .  A
N852        N880   1.322       .  A
H853        C876   1.081       .  S
H854        C871   1.081       .  S
N855       N1349   1.320   1_565  A
N856       Co870   2.083       .  S
N857        N869   1.322       .  A
N857        N873   1.318       .  A
N857       Co866   2.080       .  S
C858        N862   1.349       .  A
C858        C872   1.462       .  S
C858        C902   1.478       .  S
C859       C1378   1.453   1_455  S
C859        H863   1.082       .  S
N860        C871   1.337       .  A
N860       Co870   2.075       .  S
C864        N880   1.348       .  A
C864        C876   1.463       .  S
C864        C945   1.476       .  S
Co866      N1850   2.080   1_455  S
Co866     Cl1877   2.447   1_455  S
N867        C878   1.351       .  A
C868       N1839   1.347       .  A
Cl877     Co1833   2.445       .  S
Cl877     Co1866   2.447       .  S
C878       C1359   1.453   1_565  S
C881        H888   1.084       .  S
C881        C882   1.401       .  A
C881        C886   1.392       .  A
C882        C883   1.410       .  A
C883        C884   1.402       .  A
C883        F890   1.356       .  S
C884        H889   1.083       .  S
C884        C885   1.404       .  A
C885        C886   1.406       .  A
C886        F887   1.358       .  S
C891        H898   1.083       .  S
C891        C892   1.403       .  A
C891        C896   1.393       .  A
C892        C893   1.408       .  A
C893        C894   1.399       .  A
C893        F900   1.357       .  S
C894        H899   1.083       .  S
C894        C895   1.403       .  A
C895        C896   1.408       .  A
C896        F897   1.358       .  S
C901        H908   1.082       .  S
C901        C902   1.404       .  A
C901        C906   1.397       .  A
C902        C903   1.407       .  A
C903        C904   1.394       .  A
C903        F910   1.357       .  S
C904        H909   1.083       .  S
C904        C905   1.406       .  A
C905        C906   1.411       .  A
C906        F907   1.357       .  S
C911        H918   1.083       .  S
C911        C912   1.405       .  A
C911        C916   1.398       .  A
C912        C913   1.411       .  A
C913        C914   1.392       .  A
C913        F920   1.357       .  S
C914        H919   1.084       .  S
C914        C915   1.399       .  A
C915        C916   1.406       .  A
C916        F917   1.357       .  S
C921        H928   1.083       .  S
C921        C922   1.404       .  A
C921        C926   1.391       .  A
C922        C923   1.412       .  A
C923        C924   1.402       .  A
C923        F930   1.355       .  S
C924        H929   1.084       .  S
C924        C925   1.401       .  A
C925        C926   1.403       .  A
C926        F927   1.358       .  S
C931        H938   1.083       .  S
C931        C932   1.404       .  A
C931        C936   1.393       .  A
C932        C933   1.410       .  A
C933        C934   1.396       .  A
C933        F940   1.356       .  S
C934        H939   1.083       .  S
C934        C935   1.403       .  A
C935        C936   1.408       .  A
C936        F937   1.355       .  S
C941        H948   1.083       .  S
C941        C942   1.406       .  A
C941        C946   1.396       .  A
C942        C943   1.409       .  A
C943        C944   1.396       .  A
C943        F950   1.357       .  S
C944        H949   1.082       .  S
C944        C945   1.403       .  A
C945        C946   1.407       .  A
C946        F947   1.358       .  S
C951        H958   1.083       .  S
C951        C952   1.406       .  A
C951        C956   1.400       .  A
C952        C953   1.411       .  A
C953        C954   1.396       .  A
C953        F960   1.357       .  S
C954        H959   1.084       .  S
C954        C955   1.400       .  A
C955        C956   1.407       .  A
C956        F957   1.357       .  S
C961        H968   1.083       .  S
C961        C962   1.407       .  A
C961        C966   1.395       .  A
C962        C963   1.408       .  A
C963        C964   1.399       .  A
C963        F970   1.358       .  S
C964        H969   1.083       .  S
C964        C965   1.404       .  A
C965        C966   1.402       .  A
C966        F967   1.357       .  S
C971        H978   1.083       .  S
C971        C972   1.405       .  A
C971        C976   1.391       .  A
C972        C973   1.410       .  A
C973        C974   1.401       .  A
C973        F980   1.358       .  S
C974        H979   1.083       .  S
C974        C975   1.406       .  A
C975        C976   1.406       .  A
C976        F977   1.355       .  S
C981        H988   1.083       .  S
C981        C982   1.404       .  A
C981        C986   1.400       .  A
C982        C983   1.402       .  A
C983        C984   1.394       .  A
C983        F990   1.357       .  S
C984        H989   1.083       .  S
C984        C985   1.407       .  A
C985        C986   1.409       .  A
C986        F987   1.358   1_556  S
C991        H998   1.084       .  S
C991        C992   1.401       .  A
C991        C996   1.396       .  A
C993        C994   1.400       .  A
C993       F1000   1.356       .  S
C994        H999   1.083       .  S
C995        C996   1.410       .  A
C996        F997   1.358       .  S
C1001      N1002   1.356       .  A
C1001      N1006   1.356       .  A
C1001      C1472   1.483       .  S
N1002      C1003   1.354       .  A
C1003      N1004   1.359       .  A
C1003      C1495   1.480       .  S
N1004      C1005   1.361       .  A
C1005      N1006   1.360       .  A
C1005      C1485   1.481       .  S
C1007      N1008   1.356       .  A
C1007      N1012   1.356       .  A
C1007      C1192   1.481       .  S
N1008      C1009   1.357       .  A
C1009      N1010   1.360       .  A
C1009      C1202   1.483       .  S
N1010      C1011   1.360       .  A
C1011      N1012   1.358       .  A
C1011      C1212   1.480       .  S
C1013      N1014   1.355       .  A
C1013      N1018   1.354       .  A
C1013      C1182   1.481       .  S
N1014      C1015   1.355       .  A
C1015      N1016   1.358       .  A
C1015      C1175   1.468       .  S
N1016      C1017   1.361       .  A
C1017      N1018   1.357       .  A
C1017      C1162   1.478       .  S
C1019      N1020   1.356       .  A
C1019      N1024   1.356       .  A
C1019      C1155   1.484       .  S
N1020      C1021   1.356       .  A
C1021      N1022   1.360       .  A
C1021      C1145   1.473       .  S
N1022      C1023   1.359       .  A
C1023      N1024   1.358       .  A
C1023      C1135   1.475       .  S
C1025      N1043   1.353       .  A
C1025      C1062   1.460       .  S
C1025      C1185   1.478       .  S
N1026      N1043   1.324       .  A
N1026      N1048   1.318       .  A
C1027      N1052   1.337       .  A
C1027      C1065   1.459       .  S
C1027      H1072   1.082       .  S
H1028      C1069   1.081       .  S
C1029      N1303   1.339   1_554  A
C1029      C1033   1.454       .  S
C1029      H1058   1.082       .  S
Co1030     N1548   2.065   1_545  S
Co1030     N1038   2.088       .  S
Co1030     N1070   2.086       .  S
Co1030     N1046   2.071       .  S
N1031      C1069   1.341       .  A
N1031      N1038   1.319       .  A
N1031     Co1032   2.082       .  S
Co1032     N1035   2.087       .  S
Co1032     N1052   2.078       .  S
C1033      C1128   1.460       .  S
N1034      N1041   1.319       .  A
N1034      N1064   1.324       .  A
N1034     Co1067   2.076       .  S
N1035      N1321   1.324       .  A
N1036      C1065   1.348       .  A
N1036      N1046   1.323       .  A
H1037      C1062   1.079       .  S
N1038      N1059   1.324       .  A
N1039      N1057   1.318       .  A
N1039      N1044   1.324       .  A
C1040      N1044   1.351       .  A
C1040      C1068   1.463       .  S
C1040      C1225   1.479       .  S
N1041      C1056   1.339       .  A
N1041     Co1063   2.083       .  S
C1042      N1070   1.341       .  A
C1042      H1076   1.082       .  S
C1045      N1566   1.346   1_545  A
C1045      C1118   1.460       .  S
N1046      N1052   1.319       .  A
N1047      C1073   1.341       .  A
N1047      N1049   1.317       .  A
N1047     Co1063   2.080       .  S
N1048      C1062   1.335       .  A
N1048     Co1530   2.065       .  S
N1049      N1077   1.321       .  A
N1049     Co1067   2.078       .  S
H1050      C1073   1.080       .  S
H1051      C1068   1.080       .  S
N1053      C1279   1.339       .  A
N1053     Co1067   2.074       .  S
N1054      N1066   1.322       .  A
N1054     Co1063   2.074       .  S
C1055      N1059   1.351       .  A
C1055      C1069   1.461       .  S
C1055      C1242   1.478       .  S
C1056      C1075   1.461       .  S
C1056      H1060   1.081       .  S
N1057      C1068   1.336       .  A
N1057     Co1567   2.074   1_545  S
C1061      N1077   1.351       .  A
C1061      C1073   1.464       .  S
C1061      C1172   1.481       .  S
Co1063    Cl1574   2.446       .  S
N1064      C1075   1.348       .  A
C1065      C1165   1.468       .  S
N1066      C1545   1.346       .  A
Co1067     N1557   2.074       .  S
Co1067    Cl1574   2.445       .  S
N1071      N1285   1.324   1_554  A
Cl1074    Co1563   2.446   1_545  S
Cl1074    Co1567   2.445   1_545  S
C1075      C1232   1.471       .  S
C1078      N1096   1.349       .  A
C1078      C1115   1.461       .  S
C1078      C1215   1.472       .  S
N1079      N1096   1.324       .  A
N1079      N1101   1.319       .  A
N1079     Co1116   2.077       .  S
C1080      N1105   1.339       .  A
C1080      C1618   1.459       .  S
C1080      H1125   1.082       .  S
H1081      C1122   1.081       .  S
C1082      N1106   1.342       .  A
C1082      C1086   1.460       .  S
C1082      H1111   1.081       .  S
Co1083     N1101   2.081       .  S
Co1083     N1591   2.079   1_545  S
Co1083     N1123   2.078       .  S
Co1083     N1099   2.076       .  S
N1084      C1122   1.340       .  A
N1084      N1091   1.319       .  A
Co1085     N1088   2.087       .  S
Co1085     N1105   2.084       .  S
Co1085     N1092   2.082       .  S
Co1085    Cl1627   2.448       .  S
C1086      N1124   1.350       .  A
C1086      C1205   1.475       .  S
N1087      N1117   1.325       .  A
N1087     Co1120   2.087       .  S
N1088      N1106   1.320       .  A
N1088      N1124   1.324       .  A
N1089      N1099   1.323       .  A
H1090      C1115   1.081       .  S
N1091      N1112   1.322       .  A
N1091     Co1583   2.079       .  S
N1092      N1110   1.319       .  A
N1092      N1097   1.325       .  A
C1093      N1097   1.351       .  A
C1093      C1121   1.460       .  S
C1093      C1142   1.476       .  S
N1094      C1109   1.337       .  A
N1094     Co1116   2.073       .  S
C1095      N1123   1.341       .  A
C1095      C1098   1.461       .  S
C1095      H1129   1.081       .  S
C1098      N1119   1.350       .  A
C1098      C1132   1.476       .  S
N1100      C1126   1.340       .  A
N1100      N1102   1.319       .  A
N1101      C1115   1.339       .  A
N1102      N1130   1.322       .  A
N1102     Co1620   2.077   1_545  S
H1103      C1126   1.081       .  S
H1104      C1121   1.081       .  S
N1106     Co1120   2.083       .  S
N1107      N1119   1.322       .  A
N1107      N1123   1.318       .  A
N1107     Co1116   2.080       .  S
C1108      N1112   1.349       .  A
C1108      C1122   1.462       .  S
C1108      C1152   1.478       .  S
C1109      H1113   1.082       .  S
N1110      C1121   1.337       .  A
N1110     Co1120   2.075       .  S
C1114      N1130   1.348       .  A
C1114      C1126   1.463       .  S
C1114      C1195   1.476       .  S
N1117      C1128   1.351       .  A
C1118      C1580   1.459   1_545  S
Co1120     N1602   2.077       .  S
Co1120    Cl1627   2.447       .  S
Cl1127    Co1585   2.448   1_545  S
Cl1127    Co1620   2.447   1_545  S
C1131      H1138   1.084       .  S
C1131      C1132   1.401       .  A
C1131      C1136   1.392       .  A
C1132      C1133   1.410       .  A
C1133      C1134   1.402       .  A
C1133      F1140   1.356       .  S
C1134      H1139   1.083       .  S
C1134      C1135   1.404       .  A
C1135      C1136   1.406       .  A
C1136      F1137   1.358       .  S
C1141      H1148   1.083       .  S
C1141      C1142   1.403       .  A
C1141      C1146   1.393       .  A
C1142      C1143   1.408       .  A
C1143      C1144   1.399       .  A
C1143      F1150   1.357       .  S
C1144      H1149   1.083       .  S
C1144      C1145   1.403       .  A
C1145      C1146   1.408       .  A
C1146      F1147   1.358       .  S
C1151      H1158   1.082       .  S
C1151      C1152   1.404       .  A
C1151      C1156   1.397       .  A
C1152      C1153   1.407       .  A
C1153      C1154   1.394       .  A
C1153      F1160   1.357       .  S
C1154      H1159   1.083       .  S
C1154      C1155   1.406       .  A
C1155      C1156   1.411       .  A
C1156      F1157   1.357       .  S
C1161      H1168   1.083       .  S
C1161      C1162   1.405       .  A
C1161      C1166   1.398       .  A
C1162      C1163   1.411       .  A
C1163      C1164   1.392       .  A
C1163      F1170   1.357       .  S
C1164      H1169   1.084       .  S
C1164      C1165   1.399       .  A
C1165      C1166   1.406       .  A
C1166      F1167   1.357       .  S
C1171      H1178   1.083       .  S
C1171      C1172   1.404       .  A
C1171      C1176   1.391       .  A
C1172      C1173   1.412       .  A
C1173      C1174   1.402       .  A
C1173      F1180   1.355       .  S
C1174      H1179   1.084       .  S
C1174      C1175   1.401       .  A
C1175      C1176   1.403       .  A
C1176      F1177   1.358       .  S
C1181      H1188   1.083       .  S
C1181      C1182   1.404       .  A
C1181      C1186   1.393       .  A
C1182      C1183   1.410       .  A
C1183      C1184   1.396       .  A
C1183      F1190   1.356       .  S
C1184      H1189   1.083       .  S
C1184      C1185   1.403       .  A
C1185      C1186   1.408       .  A
C1186      F1187   1.355       .  S
C1191      H1198   1.083       .  S
C1191      C1192   1.406       .  A
C1191      C1196   1.396       .  A
C1192      C1193   1.409       .  A
C1193      C1194   1.396       .  A
C1193      F1200   1.357       .  S
C1194      H1199   1.082       .  S
C1194      C1195   1.403       .  A
C1195      C1196   1.407       .  A
C1196      F1197   1.358       .  S
C1201      H1208   1.083       .  S
C1201      C1202   1.406       .  A
C1201      C1206   1.400       .  A
C1202      C1203   1.411       .  A
C1203      C1204   1.396       .  A
C1203      F1210   1.357       .  S
C1204      H1209   1.084       .  S
C1204      C1205   1.400       .  A
C1205      C1206   1.407       .  A
C1206      F1207   1.357       .  S
C1211      H1218   1.083       .  S
C1211      C1212   1.407       .  A
C1211      C1216   1.395       .  A
C1212      C1213   1.408       .  A
C1213      C1214   1.399       .  A
C1213      F1220   1.358       .  S
C1214      H1219   1.083       .  S
C1214      C1215   1.404       .  A
C1215      C1216   1.402       .  A
C1216      F1217   1.357       .  S
C1221      H1228   1.083       .  S
C1221      C1222   1.405       .  A
C1221      C1226   1.391       .  A
C1222      C1251   1.483       .  S
C1222      C1223   1.410       .  A
C1223      C1224   1.401       .  A
C1223      F1230   1.358       .  S
C1224      H1229   1.083       .  S
C1224      C1225   1.406       .  A
C1225      C1226   1.406       .  A
C1226      F1227   1.355       .  S
C1231      H1238   1.083       .  S
C1231      C1232   1.404       .  A
C1231      C1236   1.400       .  A
C1232      C1233   1.402       .  A
C1233      C1234   1.394       .  A
C1233      F1240   1.357       .  S
C1234      H1239   1.083       .  S
C1234      C1235   1.407       .  A
C1235      C1255   1.481       .  S
C1235      C1236   1.409       .  A
C1236      F1237   1.358       .  S
C1241      H1248   1.084       .  S
C1241      C1242   1.401       .  A
C1241      C1246   1.396       .  A
C1242      C1493   1.409       .  A
C1243      C1492   1.409       .  A
C1243      C1244   1.400       .  A
C1243      F1250   1.356       .  S
C1244      H1249   1.083   1_556  S
C1244      C1495   1.404       .  A
C1245      C1253   1.480       .  S
C1245      C1494   1.404       .  A
C1245      C1246   1.410       .  A
C1246      F1247   1.358       .  S
C1251      N1252   1.356       .  A
C1251      N1256   1.356       .  A
N1252      C1253   1.354       .  A
C1253      N1254   1.359       .  A
N1254      C1255   1.361       .  A
C1255      N1256   1.360       .  A
C1257      N1258   1.356       .  A
C1257      N1262   1.356       .  A
C1257      C1442   1.481       .  S
N1258      C1259   1.357       .  A
C1259      N1260   1.360       .  A
C1259      C1452   1.483       .  S
N1260      C1261   1.360       .  A
C1261      N1262   1.358       .  A
C1261      C1462   1.480       .  S
C1263      N1264   1.355       .  A
C1263      N1268   1.354       .  A
C1263      C1432   1.481       .  S
N1264      C1265   1.355       .  A
C1265      N1266   1.358       .  A
C1265      C1425   1.468       .  S
N1266      C1267   1.361       .  A
C1267      N1268   1.357       .  A
C1267      C1412   1.478       .  S
C1269      N1270   1.356       .  A
C1269      N1274   1.356       .  A
C1269      C1405   1.484       .  S
N1270      C1271   1.356       .  A
C1271      N1272   1.360       .  A
C1271      C1395   1.473       .  S
N1272      C1273   1.359       .  A
C1273      N1274   1.358       .  A
C1273      C1385   1.475       .  S
C1275      N1293   1.353       .  A
C1275      C1312   1.460       .  S
C1275      C1435   1.478       .  S
N1276      N1293   1.324       .  A
N1276      N1298   1.318       .  A
C1277      N1302   1.337       .  A
C1277      C1315   1.459       .  S
C1277      H1322   1.082       .  S
H1278      C1319   1.081       .  S
C1279      C1283   1.454       .  S
C1279      H1308   1.082       .  S
Co1280     N1798   2.065   1_545  S
Co1280     N1288   2.088       .  S
Co1280     N1320   2.086       .  S
Co1280     N1296   2.071       .  S
N1281      C1319   1.341       .  A
N1281      N1288   1.319       .  A
N1281     Co1282   2.082       .  S
Co1282     N1285   2.087       .  S
Co1282     N1302   2.078       .  S
C1283      C1378   1.460       .  S
N1284      N1291   1.319       .  A
N1284      N1314   1.324       .  A
N1284     Co1317   2.076       .  S
N1286      C1315   1.348       .  A
N1286      N1296   1.323       .  A
H1287      C1312   1.079       .  S
N1288      N1309   1.324       .  A
N1289      N1307   1.318       .  A
N1289      N1294   1.324       .  A
C1290      N1294   1.351       .  A
C1290      C1318   1.463       .  S
C1290      C1475   1.479       .  S
N1291      C1306   1.339       .  A
N1291     Co1313   2.083       .  S
C1292      N1320   1.341       .  A
C1292      H1326   1.082       .  S
C1295      N1816   1.346   1_545  A
C1295      C1368   1.460       .  S
N1296      N1302   1.319       .  A
N1297      C1323   1.341       .  A
N1297      N1299   1.317       .  A
N1297     Co1313   2.080       .  S
N1298      C1312   1.335       .  A
N1298     Co1780   2.065       .  S
N1299      N1327   1.321       .  A
N1299     Co1317   2.078       .  S
H1300      C1323   1.080       .  S
H1301      C1318   1.080       .  S
N1303     Co1317   2.074       .  S
N1304      N1316   1.322       .  A
N1304     Co1313   2.074       .  S
C1305      N1309   1.351       .  A
C1305      C1319   1.461       .  S
C1305      C1492   1.478       .  S
C1306      C1325   1.461       .  S
C1306      H1310   1.081       .  S
N1307      C1318   1.336       .  A
N1307     Co1817   2.074   1_545  S
C1311      N1327   1.351       .  A
C1311      C1323   1.464       .  S
C1311      C1422   1.481       .  S
Co1313    Cl1824   2.446       .  S
N1314      C1325   1.348       .  A
C1315      C1415   1.468       .  S
N1316      C1795   1.346       .  A
Co1317     N1807   2.074       .  S
Co1317    Cl1824   2.445       .  S
Cl1324    Co1813   2.446   1_545  S
Cl1324    Co1817   2.445   1_545  S
C1325      C1482   1.471       .  S
C1328      N1346   1.349       .  A
C1328      C1365   1.461       .  S
C1328      C1465   1.472       .  S
N1329      N1346   1.324       .  A
N1329      N1351   1.319       .  A
N1329     Co1366   2.077       .  S
C1330      N1355   1.339       .  A
C1330      C1868   1.459       .  S
C1330      H1375   1.082       .  S
H1331      C1372   1.081       .  S
C1332      N1356   1.342       .  A
C1332      C1336   1.460       .  S
C1332      H1361   1.081       .  S
Co1333     N1351   2.081       .  S
Co1333     N1841   2.079   1_545  S
Co1333     N1373   2.078       .  S
Co1333     N1349   2.076       .  S
N1334      C1372   1.340       .  A
N1334      N1341   1.319       .  A
Co1335     N1338   2.087       .  S
Co1335     N1355   2.084       .  S
Co1335     N1342   2.082       .  S
Co1335    Cl1877   2.448       .  S
C1336      N1374   1.350       .  A
C1336      C1455   1.475       .  S
N1337      N1367   1.325       .  A
N1337     Co1370   2.087       .  S
N1338      N1356   1.320       .  A
N1338      N1374   1.324       .  A
N1339      N1349   1.323       .  A
H1340      C1365   1.081       .  S
N1341      N1362   1.322       .  A
N1341     Co1833   2.079       .  S
N1342      N1360   1.319       .  A
N1342      N1347   1.325       .  A
C1343      N1347   1.351       .  A
C1343      C1371   1.460       .  S
C1343      C1392   1.476       .  S
N1344      C1359   1.337       .  A
N1344     Co1366   2.073       .  S
C1345      N1373   1.341       .  A
C1345      C1348   1.461       .  S
C1345      H1379   1.081       .  S
C1348      N1369   1.350       .  A
C1348      C1382   1.476       .  S
N1350      C1376   1.340       .  A
N1350      N1352   1.319       .  A
N1351      C1365   1.339       .  A
N1352      N1380   1.322       .  A
N1352     Co1870   2.077   1_545  S
H1353      C1376   1.081       .  S
H1354      C1371   1.081       .  S
N1356     Co1370   2.083       .  S
N1357      N1369   1.322       .  A
N1357      N1373   1.318       .  A
N1357     Co1366   2.080       .  S
C1358      N1362   1.349       .  A
C1358      C1372   1.462       .  S
C1358      C1402   1.478       .  S
C1359      H1363   1.082       .  S
N1360      C1371   1.337       .  A
N1360     Co1370   2.075       .  S
C1364      N1380   1.348       .  A
C1364      C1376   1.463       .  S
C1364      C1445   1.476       .  S
N1367      C1378   1.351       .  A
C1368      C1830   1.459   1_545  S
Co1370     N1852   2.077       .  S
Co1370    Cl1877   2.447       .  S
Cl1377    Co1835   2.448   1_545  S
Cl1377    Co1870   2.447   1_545  S
C1381      H1388   1.084       .  S
C1381      C1382   1.401       .  A
C1381      C1386   1.392       .  A
C1382      C1383   1.410       .  A
C1383      C1384   1.402       .  A
C1383      F1390   1.356       .  S
C1384      H1389   1.083       .  S
C1384      C1385   1.404       .  A
C1385      C1386   1.406       .  A
C1386      F1387   1.358       .  S
C1391      H1398   1.083       .  S
C1391      C1392   1.403       .  A
C1391      C1396   1.393       .  A
C1392      C1393   1.408       .  A
C1393      C1394   1.399       .  A
C1393      F1400   1.357       .  S
C1394      H1399   1.083       .  S
C1394      C1395   1.403       .  A
C1395      C1396   1.408       .  A
C1396      F1397   1.358       .  S
C1401      H1408   1.082       .  S
C1401      C1402   1.404       .  A
C1401      C1406   1.397       .  A
C1402      C1403   1.407       .  A
C1403      C1404   1.394       .  A
C1403      F1410   1.357       .  S
C1404      H1409   1.083       .  S
C1404      C1405   1.406       .  A
C1405      C1406   1.411       .  A
C1406      F1407   1.357       .  S
C1411      H1418   1.083       .  S
C1411      C1412   1.405       .  A
C1411      C1416   1.398       .  A
C1412      C1413   1.411       .  A
C1413      C1414   1.392       .  A
C1413      F1420   1.357       .  S
C1414      H1419   1.084       .  S
C1414      C1415   1.399       .  A
C1415      C1416   1.406       .  A
C1416      F1417   1.357       .  S
C1421      H1428   1.083       .  S
C1421      C1422   1.404       .  A
C1421      C1426   1.391       .  A
C1422      C1423   1.412       .  A
C1423      C1424   1.402       .  A
C1423      F1430   1.355       .  S
C1424      H1429   1.084       .  S
C1424      C1425   1.401       .  A
C1425      C1426   1.403       .  A
C1426      F1427   1.358       .  S
C1431      H1438   1.083       .  S
C1431      C1432   1.404       .  A
C1431      C1436   1.393       .  A
C1432      C1433   1.410       .  A
C1433      C1434   1.396       .  A
C1433      F1440   1.356       .  S
C1434      H1439   1.083       .  S
C1434      C1435   1.403       .  A
C1435      C1436   1.408       .  A
C1436      F1437   1.355       .  S
C1441      H1448   1.083       .  S
C1441      C1442   1.406       .  A
C1441      C1446   1.396       .  A
C1442      C1443   1.409       .  A
C1443      C1444   1.396       .  A
C1443      F1450   1.357       .  S
C1444      H1449   1.082       .  S
C1444      C1445   1.403       .  A
C1445      C1446   1.407       .  A
C1446      F1447   1.358       .  S
C1451      H1458   1.083       .  S
C1451      C1452   1.406       .  A
C1451      C1456   1.400       .  A
C1452      C1453   1.411       .  A
C1453      C1454   1.396       .  A
C1453      F1460   1.357       .  S
C1454      H1459   1.084       .  S
C1454      C1455   1.400       .  A
C1455      C1456   1.407       .  A
C1456      F1457   1.357       .  S
C1461      H1468   1.083       .  S
C1461      C1462   1.407       .  A
C1461      C1466   1.395       .  A
C1462      C1463   1.408       .  A
C1463      C1464   1.399       .  A
C1463      F1470   1.358       .  S
C1464      H1469   1.083       .  S
C1464      C1465   1.404       .  A
C1465      C1466   1.402       .  A
C1466      F1467   1.357       .  S
C1471      H1478   1.083       .  S
C1471      C1472   1.405       .  A
C1471      C1476   1.391       .  A
C1472      C1473   1.410       .  A
C1473      C1474   1.401       .  A
C1473      F1480   1.358       .  S
C1474      H1479   1.083       .  S
C1474      C1475   1.406       .  A
C1475      C1476   1.406       .  A
C1476      F1477   1.355       .  S
C1481      H1488   1.083       .  S
C1481      C1482   1.404       .  A
C1481      C1486   1.400       .  A
C1482      C1483   1.402       .  A
C1483      C1484   1.394       .  A
C1483      F1490   1.357       .  S
C1484      H1489   1.083       .  S
C1484      C1485   1.407       .  A
C1485      C1486   1.409       .  A
C1486      F1487   1.358   1_556  S
C1491      H1498   1.084       .  S
C1491      C1492   1.401       .  A
C1491      C1496   1.396       .  A
C1493      C1494   1.400       .  A
C1493      F1500   1.356       .  S
C1494      H1499   1.083       .  S
C1495      C1496   1.410       .  A
C1496      F1497   1.358       .  S
C1501      N1502   1.356       .  A
C1501      N1506   1.356       .  A
C1501      C1972   1.483       .  S
N1502      C1503   1.354       .  A
C1503      N1504   1.359       .  A
C1503      C1995   1.480       .  S
N1504      C1505   1.361       .  A
C1505      N1506   1.360       .  A
C1505      C1985   1.481       .  S
C1507      N1508   1.356       .  A
C1507      N1512   1.356       .  A
C1507      C1692   1.481       .  S
N1508      C1509   1.357       .  A
C1509      N1510   1.360       .  A
C1509      C1702   1.483       .  S
N1510      C1511   1.360       .  A
C1511      N1512   1.358       .  A
C1511      C1712   1.480       .  S
C1513      N1514   1.355       .  A
C1513      N1518   1.354       .  A
C1513      C1682   1.481       .  S
N1514      C1515   1.355       .  A
C1515      N1516   1.358       .  A
C1515      C1675   1.468       .  S
N1516      C1517   1.361       .  A
C1517      N1518   1.357       .  A
C1517      C1662   1.478       .  S
C1519      N1520   1.356       .  A
C1519      N1524   1.356       .  A
C1519      C1655   1.484       .  S
N1520      C1521   1.356       .  A
C1521      N1522   1.360       .  A
C1521      C1645   1.473       .  S
N1522      C1523   1.359       .  A
C1523      N1524   1.358       .  A
C1523      C1635   1.475       .  S
C1525      N1543   1.353       .  A
C1525      C1562   1.460       .  S
C1525      C1685   1.478       .  S
N1526      N1543   1.324       .  A
N1526      N1548   1.318       .  A
C1527      N1552   1.337       .  A
C1527      C1565   1.459       .  S
C1527      H1572   1.082       .  S
H1528      C1569   1.081       .  S
C1529      N1803   1.339   1_554  A
C1529      C1533   1.454       .  S
C1529      H1558   1.082       .  S
Co1530     N1538   2.088       .  S
Co1530     N1570   2.086       .  S
Co1530     N1546   2.071       .  S
N1531      C1569   1.341       .  A
N1531      N1538   1.319       .  A
N1531     Co1532   2.082       .  S
Co1532     N1535   2.087       .  S
Co1532     N1552   2.078       .  S
C1533      C1628   1.460       .  S
N1534      N1541   1.319       .  A
N1534      N1564   1.324       .  A
N1534     Co1567   2.076       .  S
N1535      N1821   1.324       .  A
N1536      C1565   1.348       .  A
N1536      N1546   1.323       .  A
H1537      C1562   1.079   1_545  S
N1538      N1559   1.324       .  A
N1539      N1557   1.318       .  A
N1539      N1544   1.324       .  A
C1540      N1544   1.351       .  A
C1540      C1568   1.463       .  S
C1540      C1725   1.479       .  S
N1541      C1556   1.339       .  A
N1541     Co1563   2.083       .  S
C1542      N1570   1.341       .  A
C1542      H1576   1.082       .  S
C1545      C1618   1.460       .  S
N1546      N1552   1.319       .  A
N1547      C1573   1.341       .  A
N1547      N1549   1.317       .  A
N1547     Co1563   2.080       .  S
N1548      C1562   1.335       .  A
N1549      N1577   1.321       .  A
N1549     Co1567   2.078       .  S
H1550      C1573   1.080       .  S
H1551      C1568   1.080       .  S
N1553      C1779   1.339       .  A
N1553     Co1567   2.074       .  S
N1554      N1566   1.322       .  A
N1554     Co1563   2.074       .  S
C1555      N1559   1.351       .  A
C1555      C1569   1.461       .  S
C1555      C1742   1.478       .  S
C1556      C1575   1.461       .  S
C1556      H1560   1.081       .  S
N1557      C1568   1.336       .  A
C1561      N1577   1.351       .  A
C1561      C1573   1.464       .  S
C1561      C1672   1.481       .  S
N1564      C1575   1.348       .  A
C1565      C1665   1.468       .  S
N1571      N1785   1.324   1_554  A
C1575      C1732   1.471       .  S
C1578      N1596   1.349       .  A
C1578      C1615   1.461       .  S
C1578      C1715   1.472       .  S
N1579      N1596   1.324       .  A
N1579      N1601   1.319       .  A
N1579     Co1616   2.077       .  S
C1580      N1605   1.339       .  A
C1580      H1625   1.082       .  S
H1581      C1622   1.081       .  S
C1582      N1606   1.342       .  A
C1582      C1586   1.460       .  S
C1582      H1611   1.081       .  S
Co1583     N1601   2.081       .  S
Co1583     N1623   2.078       .  S
Co1583     N1599   2.076       .  S
N1584      C1622   1.340       .  A
N1584      N1591   1.319       .  A
Co1585     N1588   2.087       .  S
Co1585     N1605   2.084       .  S
Co1585     N1592   2.082       .  S
C1586      N1624   1.350       .  A
C1586      C1705   1.475       .  S
N1587      N1617   1.325       .  A
N1587     Co1620   2.087       .  S
N1588      N1606   1.320       .  A
N1588      N1624   1.324       .  A
N1589      N1599   1.323       .  A
H1590      C1615   1.081       .  S
N1591      N1612   1.322       .  A
N1592      N1610   1.319       .  A
N1592      N1597   1.325       .  A
C1593      N1597   1.351       .  A
C1593      C1621   1.460       .  S
C1593      C1642   1.476       .  S
N1594      C1609   1.337       .  A
N1594     Co1616   2.073       .  S
C1595      N1623   1.341       .  A
C1595      C1598   1.461       .  S
C1595      H1629   1.081       .  S
C1598      N1619   1.350       .  A
C1598      C1632   1.476       .  S
N1600      C1626   1.340       .  A
N1600      N1602   1.319       .  A
N1601      C1615   1.339       .  A
N1602      N1630   1.322       .  A
H1603      C1626   1.081       .  S
H1604      C1621   1.081       .  S
N1606     Co1620   2.083       .  S
N1607      N1619   1.322       .  A
N1607      N1623   1.318       .  A
N1607     Co1616   2.080       .  S
C1608      N1612   1.349       .  A
C1608      C1622   1.462       .  S
C1608      C1652   1.478       .  S
C1609      H1613   1.082       .  S
N1610      C1621   1.337       .  A
N1610     Co1620   2.075       .  S
C1614      N1630   1.348       .  A
C1614      C1626   1.463       .  S
C1614      C1695   1.476       .  S
N1617      C1628   1.351       .  A
C1631      H1638   1.084       .  S
C1631      C1632   1.401       .  A
C1631      C1636   1.392       .  A
C1632      C1633   1.410       .  A
C1633      C1634   1.402       .  A
C1633      F1640   1.356       .  S
C1634      H1639   1.083       .  S
C1634      C1635   1.404       .  A
C1635      C1636   1.406       .  A
C1636      F1637   1.358       .  S
C1641      H1648   1.083       .  S
C1641      C1642   1.403       .  A
C1641      C1646   1.393       .  A
C1642      C1643   1.408       .  A
C1643      C1644   1.399       .  A
C1643      F1650   1.357       .  S
C1644      H1649   1.083       .  S
C1644      C1645   1.403       .  A
C1645      C1646   1.408       .  A
C1646      F1647   1.358       .  S
C1651      H1658   1.082       .  S
C1651      C1652   1.404       .  A
C1651      C1656   1.397       .  A
C1652      C1653   1.407       .  A
C1653      C1654   1.394       .  A
C1653      F1660   1.357       .  S
C1654      H1659   1.083       .  S
C1654      C1655   1.406       .  A
C1655      C1656   1.411       .  A
C1656      F1657   1.357       .  S
C1661      H1668   1.083       .  S
C1661      C1662   1.405       .  A
C1661      C1666   1.398       .  A
C1662      C1663   1.411       .  A
C1663      C1664   1.392       .  A
C1663      F1670   1.357       .  S
C1664      H1669   1.084       .  S
C1664      C1665   1.399       .  A
C1665      C1666   1.406       .  A
C1666      F1667   1.357       .  S
C1671      H1678   1.083       .  S
C1671      C1672   1.404       .  A
C1671      C1676   1.391       .  A
C1672      C1673   1.412       .  A
C1673      C1674   1.402       .  A
C1673      F1680   1.355       .  S
C1674      H1679   1.084       .  S
C1674      C1675   1.401       .  A
C1675      C1676   1.403       .  A
C1676      F1677   1.358       .  S
C1681      H1688   1.083       .  S
C1681      C1682   1.404       .  A
C1681      C1686   1.393       .  A
C1682      C1683   1.410       .  A
C1683      C1684   1.396       .  A
C1683      F1690   1.356       .  S
C1684      H1689   1.083       .  S
C1684      C1685   1.403       .  A
C1685      C1686   1.408       .  A
C1686      F1687   1.355       .  S
C1691      H1698   1.083       .  S
C1691      C1692   1.406       .  A
C1691      C1696   1.396       .  A
C1692      C1693   1.409       .  A
C1693      C1694   1.396       .  A
C1693      F1700   1.357       .  S
C1694      H1699   1.082       .  S
C1694      C1695   1.403       .  A
C1695      C1696   1.407       .  A
C1696      F1697   1.358       .  S
C1701      H1708   1.083       .  S
C1701      C1702   1.406       .  A
C1701      C1706   1.400       .  A
C1702      C1703   1.411       .  A
C1703      C1704   1.396       .  A
C1703      F1710   1.357       .  S
C1704      H1709   1.084       .  S
C1704      C1705   1.400       .  A
C1705      C1706   1.407       .  A
C1706      F1707   1.357       .  S
C1711      H1718   1.083       .  S
C1711      C1712   1.407       .  A
C1711      C1716   1.395       .  A
C1712      C1713   1.408       .  A
C1713      C1714   1.399       .  A
C1713      F1720   1.358       .  S
C1714      H1719   1.083       .  S
C1714      C1715   1.404       .  A
C1715      C1716   1.402       .  A
C1716      F1717   1.357       .  S
C1721      H1728   1.083       .  S
C1721      C1722   1.405       .  A
C1721      C1726   1.391       .  A
C1722      C1751   1.483       .  S
C1722      C1723   1.410       .  A
C1723      C1724   1.401       .  A
C1723      F1730   1.358       .  S
C1724      H1729   1.083       .  S
C1724      C1725   1.406       .  A
C1725      C1726   1.406       .  A
C1726      F1727   1.355       .  S
C1731      H1738   1.083       .  S
C1731      C1732   1.404       .  A
C1731      C1736   1.400       .  A
C1732      C1733   1.402       .  A
C1733      C1734   1.394       .  A
C1733      F1740   1.357       .  S
C1734      H1739   1.083       .  S
C1734      C1735   1.407       .  A
C1735      C1755   1.481       .  S
C1735      C1736   1.409       .  A
C1736      F1737   1.358       .  S
C1741      H1748   1.084       .  S
C1741      C1742   1.401       .  A
C1741      C1746   1.396       .  A
C1742      C1993   1.409       .  A
C1743      C1992   1.409       .  A
C1743      C1744   1.400       .  A
C1743      F1750   1.356       .  S
C1744      H1749   1.083   1_556  S
C1744      C1995   1.404       .  A
C1745      C1753   1.480       .  S
C1745      C1994   1.404       .  A
C1745      C1746   1.410       .  A
C1746      F1747   1.358       .  S
C1751      N1752   1.356       .  A
C1751      N1756   1.356       .  A
N1752      C1753   1.354       .  A
C1753      N1754   1.359       .  A
N1754      C1755   1.361       .  A
C1755      N1756   1.360       .  A
C1757      N1758   1.356       .  A
C1757      N1762   1.356       .  A
C1757      C1942   1.481       .  S
N1758      C1759   1.357       .  A
C1759      N1760   1.360       .  A
C1759      C1952   1.483       .  S
N1760      C1761   1.360       .  A
C1761      N1762   1.358       .  A
C1761      C1962   1.480       .  S
C1763      N1764   1.355       .  A
C1763      N1768   1.354       .  A
C1763      C1932   1.481       .  S
N1764      C1765   1.355       .  A
C1765      N1766   1.358       .  A
C1765      C1925   1.468       .  S
N1766      C1767   1.361       .  A
C1767      N1768   1.357       .  A
C1767      C1912   1.478       .  S
C1769      N1770   1.356       .  A
C1769      N1774   1.356       .  A
C1769      C1905   1.484       .  S
N1770      C1771   1.356       .  A
C1771      N1772   1.360       .  A
C1771      C1895   1.473       .  S
N1772      C1773   1.359       .  A
C1773      N1774   1.358       .  A
C1773      C1885   1.475       .  S
C1775      N1793   1.353       .  A
C1775      C1812   1.460       .  S
C1775      C1935   1.478       .  S
N1776      N1793   1.324       .  A
N1776      N1798   1.318       .  A
C1777      N1802   1.337       .  A
C1777      C1815   1.459       .  S
C1777      H1822   1.082       .  S
H1778      C1819   1.081       .  S
C1779      C1783   1.454       .  S
C1779      H1808   1.082       .  S
Co1780     N1788   2.088       .  S
Co1780     N1820   2.086       .  S
Co1780     N1796   2.071       .  S
N1781      C1819   1.341       .  A
N1781      N1788   1.319       .  A
N1781     Co1782   2.082       .  S
Co1782     N1785   2.087       .  S
Co1782     N1802   2.078       .  S
C1783      C1878   1.460       .  S
N1784      N1791   1.319       .  A
N1784      N1814   1.324       .  A
N1784     Co1817   2.076       .  S
N1786      C1815   1.348       .  A
N1786      N1796   1.323       .  A
H1787      C1812   1.079   1_545  S
N1788      N1809   1.324       .  A
N1789      N1807   1.318       .  A
N1789      N1794   1.324       .  A
C1790      N1794   1.351       .  A
C1790      C1818   1.463       .  S
C1790      C1975   1.479       .  S
N1791      C1806   1.339       .  A
N1791     Co1813   2.083       .  S
C1792      N1820   1.341       .  A
C1792      H1826   1.082       .  S
C1795      C1868   1.460       .  S
N1796      N1802   1.319       .  A
N1797      C1823   1.341       .  A
N1797      N1799   1.317       .  A
N1797     Co1813   2.080       .  S
N1798      C1812   1.335       .  A
N1799      N1827   1.321       .  A
N1799     Co1817   2.078       .  S
H1800      C1823   1.080       .  S
H1801      C1818   1.080       .  S
N1803     Co1817   2.074       .  S
N1804      N1816   1.322       .  A
N1804     Co1813   2.074       .  S
C1805      N1809   1.351       .  A
C1805      C1819   1.461       .  S
C1805      C1992   1.478       .  S
C1806      C1825   1.461       .  S
C1806      H1810   1.081       .  S
N1807      C1818   1.336       .  A
C1811      N1827   1.351       .  A
C1811      C1823   1.464       .  S
C1811      C1922   1.481       .  S
N1814      C1825   1.348       .  A
C1815      C1915   1.468       .  S
C1825      C1982   1.471       .  S
C1828      N1846   1.349       .  A
C1828      C1865   1.461       .  S
C1828      C1965   1.472       .  S
N1829      N1846   1.324       .  A
N1829      N1851   1.319       .  A
N1829     Co1866   2.077       .  S
C1830      N1855   1.339       .  A
C1830      H1875   1.082       .  S
H1831      C1872   1.081       .  S
C1832      N1856   1.342       .  A
C1832      C1836   1.460       .  S
C1832      H1861   1.081       .  S
Co1833     N1851   2.081       .  S
Co1833     N1873   2.078       .  S
Co1833     N1849   2.076       .  S
N1834      C1872   1.340       .  A
N1834      N1841   1.319       .  A
Co1835     N1838   2.087       .  S
Co1835     N1855   2.084       .  S
Co1835     N1842   2.082       .  S
C1836      N1874   1.350       .  A
C1836      C1955   1.475       .  S
N1837      N1867   1.325       .  A
N1837     Co1870   2.087       .  S
N1838      N1856   1.320       .  A
N1838      N1874   1.324       .  A
N1839      N1849   1.323       .  A
H1840      C1865   1.081       .  S
N1841      N1862   1.322       .  A
N1842      N1860   1.319       .  A
N1842      N1847   1.325       .  A
C1843      N1847   1.351       .  A
C1843      C1871   1.460       .  S
C1843      C1892   1.476       .  S
N1844      C1859   1.337       .  A
N1844     Co1866   2.073       .  S
C1845      N1873   1.341       .  A
C1845      C1848   1.461       .  S
C1845      H1879   1.081       .  S
C1848      N1869   1.350       .  A
C1848      C1882   1.476       .  S
N1850      C1876   1.340       .  A
N1850      N1852   1.319       .  A
N1851      C1865   1.339       .  A
N1852      N1880   1.322       .  A
H1853      C1876   1.081       .  S
H1854      C1871   1.081       .  S
N1856     Co1870   2.083       .  S
N1857      N1869   1.322       .  A
N1857      N1873   1.318       .  A
N1857     Co1866   2.080       .  S
C1858      N1862   1.349       .  A
C1858      C1872   1.462       .  S
C1858      C1902   1.478       .  S
C1859      H1863   1.082       .  S
N1860      C1871   1.337       .  A
N1860     Co1870   2.075       .  S
C1864      N1880   1.348       .  A
C1864      C1876   1.463       .  S
C1864      C1945   1.476       .  S
N1867      C1878   1.351       .  A
C1881      H1888   1.084       .  S
C1881      C1882   1.401       .  A
C1881      C1886   1.392       .  A
C1882      C1883   1.410       .  A
C1883      C1884   1.402       .  A
C1883      F1890   1.356       .  S
C1884      H1889   1.083       .  S
C1884      C1885   1.404       .  A
C1885      C1886   1.406       .  A
C1886      F1887   1.358       .  S
C1891      H1898   1.083       .  S
C1891      C1892   1.403       .  A
C1891      C1896   1.393       .  A
C1892      C1893   1.408       .  A
C1893      C1894   1.399       .  A
C1893      F1900   1.357       .  S
C1894      H1899   1.083       .  S
C1894      C1895   1.403       .  A
C1895      C1896   1.408       .  A
C1896      F1897   1.358       .  S
C1901      H1908   1.082       .  S
C1901      C1902   1.404       .  A
C1901      C1906   1.397       .  A
C1902      C1903   1.407       .  A
C1903      C1904   1.394       .  A
C1903      F1910   1.357       .  S
C1904      H1909   1.083       .  S
C1904      C1905   1.406       .  A
C1905      C1906   1.411       .  A
C1906      F1907   1.357       .  S
C1911      H1918   1.083       .  S
C1911      C1912   1.405       .  A
C1911      C1916   1.398       .  A
C1912      C1913   1.411       .  A
C1913      C1914   1.392       .  A
C1913      F1920   1.357       .  S
C1914      H1919   1.084       .  S
C1914      C1915   1.399       .  A
C1915      C1916   1.406       .  A
C1916      F1917   1.357       .  S
C1921      H1928   1.083       .  S
C1921      C1922   1.404       .  A
C1921      C1926   1.391       .  A
C1922      C1923   1.412       .  A
C1923      C1924   1.402       .  A
C1923      F1930   1.355       .  S
C1924      H1929   1.084       .  S
C1924      C1925   1.401       .  A
C1925      C1926   1.403       .  A
C1926      F1927   1.358       .  S
C1931      H1938   1.083       .  S
C1931      C1932   1.404       .  A
C1931      C1936   1.393       .  A
C1932      C1933   1.410       .  A
C1933      C1934   1.396       .  A
C1933      F1940   1.356       .  S
C1934      H1939   1.083       .  S
C1934      C1935   1.403       .  A
C1935      C1936   1.408       .  A
C1936      F1937   1.355       .  S
C1941      H1948   1.083       .  S
C1941      C1942   1.406       .  A
C1941      C1946   1.396       .  A
C1942      C1943   1.409       .  A
C1943      C1944   1.396       .  A
C1943      F1950   1.357       .  S
C1944      H1949   1.082       .  S
C1944      C1945   1.403       .  A
C1945      C1946   1.407       .  A
C1946      F1947   1.358       .  S
C1951      H1958   1.083       .  S
C1951      C1952   1.406       .  A
C1951      C1956   1.400       .  A
C1952      C1953   1.411       .  A
C1953      C1954   1.396       .  A
C1953      F1960   1.357       .  S
C1954      H1959   1.084       .  S
C1954      C1955   1.400       .  A
C1955      C1956   1.407       .  A
C1956      F1957   1.357       .  S
C1961      H1968   1.083       .  S
C1961      C1962   1.407       .  A
C1961      C1966   1.395       .  A
C1962      C1963   1.408       .  A
C1963      C1964   1.399       .  A
C1963      F1970   1.358       .  S
C1964      H1969   1.083       .  S
C1964      C1965   1.404       .  A
C1965      C1966   1.402       .  A
C1966      F1967   1.357       .  S
C1971      H1978   1.083       .  S
C1971      C1972   1.405       .  A
C1971      C1976   1.391       .  A
C1972      C1973   1.410       .  A
C1973      C1974   1.401       .  A
C1973      F1980   1.358       .  S
C1974      H1979   1.083       .  S
C1974      C1975   1.406       .  A
C1975      C1976   1.406       .  A
C1976      F1977   1.355       .  S
C1981      H1988   1.083       .  S
C1981      C1982   1.404       .  A
C1981      C1986   1.400       .  A
C1982      C1983   1.402       .  A
C1983      C1984   1.394       .  A
C1983      F1990   1.357       .  S
C1984      H1989   1.083       .  S
C1984      C1985   1.407       .  A
C1985      C1986   1.409       .  A
C1986      F1987   1.358   1_556  S
C1991      H1998   1.084       .  S
C1991      C1992   1.401       .  A
C1991      C1996   1.396       .  A
C1993      C1994   1.400       .  A
C1993      F2000   1.356       .  S
C1994      H1999   1.083       .  S
C1995      C1996   1.410       .  A
C1996      F1997   1.358       .  S
