geometry optimzed in LAMMPS
_audit_creation_date              2020-12-01 
_audit_creation_method            'lammps2cif' 
_symmetry_space_group_name_H-M    'P1' 
_symmetry_Int_Tables_number       1 
_symmetry_cell_setting            triclinic 
loop_ 
_symmetry_equiv_pos_as_xyz 
  x,y,z 
_cell_length_a                    29.40292742 
_cell_length_b                    35.95250438329208 
_cell_length_c                    46.138920647282205 
_cell_angle_alpha                 90.03422757778272 
_cell_angle_beta                  89.97393291408788 
_cell_angle_gamma                 90.2317164331531 
loop_ 
_atom_site_label 
_atom_site_type_symbol 
_atom_site_fract_x 
_atom_site_fract_y 
_atom_site_fract_z 
_atom_site_charge 
O1          O  0.49995926  0.74401806  0.29793891    -0.72600
O2          O  0.50115246  0.80195150  0.22351389    -0.73600
O3          O  0.43229224  0.77464246  0.26071226    -0.62200
O4          O  0.56847967  0.77213924  0.26013728    -0.70600
O5          O  0.56696822  0.71882051  0.23580374    -0.70200
O6          O  0.43022693  0.72095066  0.23688931    -0.61400
O7          O  0.49859246  0.74894699  0.19882725    -0.73900
O8          O  0.49844648  0.69103917  0.27319696    -0.72700
Cu9        Cu  0.50050709  0.77498218  0.26148966     1.04600
Cu10       Cu  0.49846662  0.71809465  0.23526368     1.04300
C11         C  0.49929121  0.70845917  0.29730736     0.93600
C12         C  0.50006823  0.78448666  0.19942861     0.92700
C13         C  0.40983078  0.74822106  0.24890363     0.84900
C14         C  0.58917389  0.74528231  0.24782659     0.91200
O15         O  0.06739626  0.72277465  0.26251829    -0.72600
O16         O  0.93096124  0.72331706  0.26187178    -0.73600
O17         O  0.99949103  0.69412268  0.22548119    -0.62200
O18         O  0.99905444  0.75247412  0.29969287    -0.70600
O19         O  0.99996185  0.80525312  0.27472938    -0.70200
O20         O  0.00072411  0.74682501  0.20042881    -0.61400
O21         O  0.93183801  0.77661284  0.23754656    -0.73900
O22         O  0.06843542  0.77614734  0.23828359    -0.72700
Cu23       Cu  0.99917792  0.72137776  0.26331468     1.04600
Cu24       Cu  0.00023673  0.77804180  0.23683316     1.04300
C25         C  0.08933971  0.74927151  0.25040974     0.93600
C26         C  0.90994409  0.75003718  0.24960753     0.92700
C27         C  0.00044053  0.71126739  0.20126994     0.84900
C28         C  0.99950779  0.78801671  0.29891440     0.91200
O29         O  0.56870386  0.22801017  0.73986695    -0.72600
O30         O  0.43222979  0.22616307  0.74006964    -0.73600
O31         O  0.49995690  0.25574051  0.70216192    -0.62200
O32         O  0.50086417  0.19901447  0.77708414    -0.70600
O33         O  0.50112224  0.25226729  0.80149220    -0.70200
O34         O  0.49931329  0.30896502  0.72659399    -0.61400
O35         O  0.43175336  0.27980218  0.76397956    -0.73900
O36         O  0.56830553  0.28191194  0.76342062    -0.72700
Cu37       Cu  0.50046870  0.22539503  0.73890347     1.04600
Cu38       Cu  0.50006306  0.28257351  0.76476444     1.04300
C39         C  0.58994778  0.25520866  0.75155016     0.93600
C40         C  0.41053600  0.25270855  0.75210417     0.92700
C41         C  0.49954471  0.29129378  0.70258857     0.84900
C42         C  0.50127614  0.21671014  0.80107216     0.91200
O43         O  0.93088921  0.22338701  0.76101910    -0.72600
O44         O  0.06738916  0.22025370  0.76182880    -0.73600
O45         O  0.99924228  0.24955041  0.79970362    -0.62200
O46         O  0.99841064  0.19457448  0.72395155    -0.70600
O47         O  0.00012697  0.24835336  0.70032593    -0.70200
O48         O  0.00212742  0.30330240  0.77608389    -0.61400
O49         O  0.06928142  0.27439788  0.73869001    -0.73900
O50         O  0.93286131  0.27789328  0.73839275    -0.72700
Cu51       Cu  0.99892269  0.22007825  0.76249291     1.04600
Cu52       Cu  0.00121472  0.27783454  0.73750782     1.04300
C53         C  0.91044653  0.25103032  0.74961528     0.93600
C54         C  0.08978786  0.24696972  0.75034069     0.92700
C55         C  0.00067251  0.28510085  0.79981128     0.84900
C56         C  0.99893665  0.21279763  0.70022502     0.91200
O57         O  0.50029774  0.69571599  0.72550035    -0.72600
O58         O  0.50132933  0.75427523  0.79953824    -0.73600
O59         O  0.43265373  0.72461459  0.76254520    -0.62200
O60         O  0.56917739  0.72508884  0.76189819    -0.70600
O61         O  0.56867097  0.77830132  0.73747259    -0.70200
O62         O  0.43221063  0.77782155  0.73808875    -0.61400
O63         O  0.50068885  0.80700451  0.77450365    -0.73900
O64         O  0.49989166  0.74834470  0.70034916    -0.72700
Cu65       Cu  0.50089203  0.72311111  0.76327136     1.04600
Cu66       Cu  0.50039445  0.77968209  0.73666406     1.04300
C67         C  0.49973810  0.71279202  0.70125812     0.93600
C68         C  0.50101572  0.78980389  0.79870387     0.92700
C69         C  0.41100616  0.75112744  0.75044227     0.84900
C70         C  0.59038707  0.75193454  0.74972564     0.91200
O71         O  0.00090380  0.69803065  0.77699915    -0.72600
O72         O  0.00026778  0.75545283  0.70246019    -0.73600
O73         O  0.06886162  0.72645623  0.73959170    -0.62200
O74         O  0.93248078  0.72638324  0.74048798    -0.70600
O75         O  0.93253732  0.78017218  0.76421145    -0.70200
O76         O  0.06921471  0.78001667  0.76362173    -0.61400
O77         O  0.00078142  0.80854604  0.72708581    -0.73900
O78         O  0.00088934  0.75113605  0.80159849    -0.72700
Cu79       Cu  0.00062040  0.72476446  0.73898003     1.04600
Cu80       Cu  0.00091565  0.78180260  0.76504537     1.04300
C81         C  0.00068357  0.71557527  0.80105126     0.93600
C82         C  0.00044840  0.79100467  0.70303496     0.92700
C83         C  0.09048023  0.75332439  0.75142327     0.84900
C84         C  0.91107307  0.75312863  0.75247694     0.91200
C85         C  0.49762964  0.92349449  0.02593457     0.80600
N86         N  0.49687356  0.96126917  0.02573372    -0.77700
C87         C  0.49620290  0.98009816  0.00017438     0.83000
N88         N  0.49660482  0.96092347  0.97476580    -0.77700
C89         C  0.49754693  0.92315330  0.97487106     0.83100
N90         N  0.49796254  0.90464679  0.00047740    -0.79400
C91         C  0.49758464  0.07774151  0.02565699     0.80600
N92         N  0.49884566  0.09648974  0.00015942    -0.77700
C93         C  0.49847222  0.07780587  0.97459820     0.83000
N94         N  0.49709136  0.04000932  0.97460943    -0.77700
C95         C  0.49615007  0.02099154  0.00007131     0.83100
N96         N  0.49630188  0.03998677  0.02553402    -0.79400
C97         C  0.50357405  0.42302143  0.52567368     0.80600
N98         N  0.50284456  0.46081735  0.52580259    -0.77700
C99         C  0.50265436  0.47998285  0.50041054     0.83000
N100        N  0.50317462  0.46114146  0.47487874    -0.77700
C101        C  0.50395681  0.42339186  0.47460107     0.83100
N102        N  0.50411198  0.40447884  0.50003328    -0.79400
C103        C  0.49874286  0.57782193  0.52565411     0.80600
N104        N  0.49989480  0.54003656  0.52580520    -0.77700
C105        C  0.50149096  0.52085820  0.50039979     0.83000
N106        N  0.50192015  0.53967270  0.47484079    -0.77700
C107        C  0.50089188  0.57741181  0.47458519     0.83100
N108        N  0.49931782  0.59628512  0.50002041    -0.79400
C109        C  0.00092760  0.92175471  0.47501892     0.80600
N110        N  0.00108493  0.90331549  0.50064669    -0.77700
C111        C  0.00112203  0.92223452  0.52608340     0.83000
N112        N  0.00088915  0.95999804  0.52584536    -0.77700
C113        C  0.00071134  0.97875234  0.50026240     0.83100
N114        N  0.00076598  0.95952347  0.47487549    -0.79400
C115        C  0.99961737  0.07615721  0.47426310     0.80600
N116        N  0.00040785  0.03838786  0.47452660    -0.77700
C117        C  0.00005069  0.01960045  0.50005775     0.83000
N118        N  0.99894057  0.03879387  0.52540740    -0.77700
C119        C  0.99817167  0.07656021  0.52532327     0.83100
N120        N  0.99849132  0.09512268  0.49970792    -0.79400
C121        C  0.99783908  0.42194488  0.97451776     0.80600
N122        N  0.99776449  0.45973312  0.97463563    -0.77700
C123        C  0.99769729  0.47873436  0.00011887     0.83000
N124        N  0.99802459  0.45970000  0.02556524    -0.77700
C125        C  0.99835122  0.42190192  0.02558142     0.83100
N126        N  0.99812719  0.40320027  0.00002550    -0.79400
C127        C  0.99735311  0.57632136  0.97441951     0.80600
N128        N  0.99728438  0.53854221  0.97457579    -0.77700
C129        C  0.99751994  0.51965123  0.00010455     0.83000
N130        N  0.99788694  0.53879297  0.02555567    -0.77700
C131        C  0.99813894  0.57659226  0.02549272     0.83100
N132        N  0.99786762  0.59512358  0.99989517    -0.79400
O133        O  0.49907274  0.19642422  0.22420457    -0.72600
O134        O  0.49812974  0.25254462  0.29936667    -0.73600
O135        O  0.43034758  0.22449028  0.26079260    -0.62200
O136        O  0.56686667  0.22392948  0.26213305    -0.70600
O137        O  0.56786751  0.27813576  0.23906079    -0.70200
O138        O  0.43139915  0.27836139  0.23724635    -0.61400
O139        O  0.49871686  0.30611501  0.27543645    -0.73900
O140        O  0.50070298  0.24993403  0.20020737    -0.72700
Cu141      Cu  0.49853909  0.22251591  0.26251044     1.04600
Cu142      Cu  0.49969564  0.27998940  0.23710101     1.04300
C143        C  0.50010073  0.21436881  0.20035658     0.93600
C144        C  0.49843964  0.28810526  0.29926712     0.92700
C145        C  0.40943304  0.25140925  0.24872116     0.84900
C146        C  0.58881418  0.25102215  0.25086148     0.91200
O147        O  0.99886104  0.19227616  0.27473426    -0.72600
O148        O  0.99884452  0.24818527  0.19930899    -0.73600
O149        O  0.06691390  0.21934956  0.23686164    -0.62200
O150        O  0.93046740  0.22045531  0.23780895    -0.70600
O151        O  0.93143639  0.27453942  0.26110057    -0.70200
O152        O  0.06800910  0.27353021  0.26002764    -0.61400
O153        O  0.99966133  0.30170972  0.22334592    -0.73900
O154        O  0.99991408  0.24596470  0.29854583    -0.72700
Cu155      Cu  0.99867916  0.21821164  0.23629265     1.04600
Cu156      Cu  0.99978890  0.27577005  0.26163433     1.04300
C157        C  0.99951819  0.21041103  0.29852935     0.93600
C158        C  0.99947865  0.28375995  0.19948442     0.92700
C159        C  0.08889399  0.24637689  0.24820751     0.84900
C160        C  0.90949687  0.24753532  0.24967306     0.91200
C161        C  0.29057494  0.23118758  0.24769101     0.20700
C162        C  0.25138612  0.20879255  0.24768933    -0.39200
C163        C  0.20993250  0.22790737  0.24700441     0.19700
C164        C  0.20774490  0.26638024  0.24683427     0.22300
C165        C  0.24692810  0.28875170  0.24628861    -0.39700
C166        C  0.28837423  0.26962869  0.24652465     0.21100
N167        N  0.33399187  0.21984372  0.24884075    -0.33000
C168        C  0.35955657  0.25126119  0.24798236    -0.10500
C169        C  0.33239735  0.28287815  0.24635660    -0.29300
N170        N  0.16433963  0.27780101  0.24742149    -0.45900
C171        C  0.13875466  0.24638856  0.24755941    -0.05200
C172        C  0.16588441  0.21468244  0.24709498    -0.22600
H173        H  0.25304972  0.17873583  0.24837018     0.19200
H174        H  0.24526172  0.31881746  0.24591933     0.18000
H175        H  0.34339678  0.31163202  0.24568435     0.14300
H176        H  0.15484859  0.18592691  0.24740254     0.14200
H177        H  0.34556020  0.19244895  0.24995915     0.32300
H178        H  0.15278633  0.30523848  0.24757898     0.35100
C179        C  0.70767709  0.23135466  0.25176394     0.20700
C180        C  0.74686232  0.20921222  0.25135096    -0.39200
C181        C  0.78834050  0.22860543  0.25079304     0.19700
C182        C  0.79061183  0.26708604  0.25125414     0.22300
C183        C  0.75143139  0.28921602  0.25137272    -0.39700
C184        C  0.70995918  0.26983322  0.25133281     0.21100
N185        N  0.66419576  0.21972407  0.25211585    -0.33000
C186        C  0.63871191  0.25103021  0.25141443    -0.10500
C187        C  0.66597554  0.28282418  0.25082163    -0.29300
N188        N  0.83407572  0.27875445  0.25123057    -0.45900
C189        C  0.85958733  0.24748120  0.25028062    -0.05200
C190        C  0.83234231  0.21565646  0.24985175    -0.22600
H191        H  0.74517756  0.17913179  0.25126277     0.19200
H192        H  0.75311110  0.31929558  0.25130238     0.18000
H193        H  0.65503922  0.31152483  0.25025974     0.14300
H194        H  0.84331117  0.18696383  0.24926346     0.14200
H195        H  0.65254983  0.19223776  0.25236216     0.32300
H196        H  0.84568622  0.30625035  0.25150901     0.35100
C197        C  0.99917215  0.35059529  0.14229281     0.20700
C198        C  0.99726711  0.38614057  0.12981781    -0.39200
C199        C  0.99875830  0.38714504  0.09946061     0.19700
C200        C  0.00199451  0.35517528  0.08285784     0.22300
C201        C  0.00411050  0.31964393  0.09533967    -0.39700
C202        C  0.00245552  0.31862538  0.12569218     0.21100
N203        N  0.99782861  0.34215562  0.17061091    -0.33000
C204        C  0.00011975  0.30455126  0.17207198    -0.10500
C205        C  0.00309430  0.28884452  0.14449348    -0.29300
N206        N  0.00232163  0.36355166  0.05451486    -0.45900
C207        C  0.99927200  0.40111895  0.05302690    -0.05200
C208        C  0.99706622  0.41685970  0.08063576    -0.22600
H209        H  0.99452899  0.41113251  0.14278423     0.19200
H210        H  0.00652509  0.29463646  0.08236559     0.18000
H211        H  0.00532269  0.25964531  0.13897173     0.14300
H212        H  0.99431548  0.44602995  0.08616007     0.14200
H213        H  0.99530853  0.36083507  0.18788488     0.32300
H214        H  0.00439009  0.34482454  0.03724424     0.35100
C215        C  0.00175492  0.14480111  0.35659526     0.20700
C216        C  0.00334123  0.10956766  0.36961062    -0.39200
C217        C  0.00197148  0.10934745  0.39998799     0.19700
C218        C  0.99933586  0.14174485  0.41613062     0.22300
C219        C  0.99791587  0.17697196  0.40311968    -0.39700
C220        C  0.99921509  0.17719401  0.37275128     0.21100
N221        N  0.00217380  0.15251622  0.32812217    -0.33000
C222        C  0.99992716  0.19008344  0.32615136    -0.10500
C223        C  0.99808988  0.20646912  0.35352745    -0.29300
N224        N  0.99822682  0.13404535  0.44459288    -0.45900
C225        C  0.00012310  0.09647122  0.44660328    -0.05200
C226        C  0.00250869  0.08007207  0.41923067    -0.22600
H227        H  0.00528409  0.08421098  0.35701887     0.19200
H228        H  0.99577772  0.20231854  0.41570907     0.18000
H229        H  0.99602074  0.23579788  0.35864516     0.14300
H230        H  0.00430299  0.05072512  0.41411951     0.14200
H231        H  0.00386246  0.13341224  0.31109028     0.32300
H232        H  0.99620334  0.15318415  0.46158842     0.35100
C233        C  0.50355270  0.35753944  0.41659845     0.20700
C234        C  0.50347449  0.32220422  0.40369652    -0.39200
C235        C  0.50146657  0.32180908  0.37334935     0.19700
C236        C  0.49979865  0.35414515  0.35710687     0.22300
C237        C  0.49994316  0.38949906  0.37000928    -0.39700
C238        C  0.50187181  0.38988877  0.40037333     0.21100
N239        N  0.50478833  0.36537908  0.44503821    -0.33000
C240        C  0.50384863  0.40299215  0.44695979    -0.10500
C241        C  0.50210819  0.41928327  0.41954448    -0.29300
N242        N  0.49827466  0.34624100  0.32867488    -0.45900
C243        C  0.49894347  0.30861216  0.32682274    -0.05200
C244        C  0.50087444  0.29237802  0.35423020    -0.22600
H245        H  0.50475312  0.29689416  0.41635670     0.19200
H246        H  0.49857419  0.41480860  0.35735165     0.18000
H247        H  0.50082753  0.44862300  0.41436924     0.14300
H248        H  0.50198443  0.26304388  0.35943127     0.14200
H249        H  0.50595888  0.34629175  0.46208552     0.32300
H250        H  0.49700598  0.36526548  0.31159081     0.35100
C251        C  0.49831254  0.14794759  0.14280490     0.20700
C252        C  0.49550751  0.11256045  0.13007075    -0.39200
C253        C  0.49722737  0.11185606  0.09970973     0.19700
C254        C  0.50147381  0.14394618  0.08333800     0.22300
C255        C  0.50443787  0.17930752  0.09607527    -0.39700
C256        C  0.50260712  0.18002597  0.12642384     0.21100
N257        N  0.49705321  0.15613729  0.17118376    -0.33000
C258        C  0.50047160  0.19369097  0.17287802    -0.10500
C259        C  0.50402230  0.20959947  0.14541044    -0.29300
N260        N  0.50205343  0.13584934  0.05493976    -0.45900
C261        C  0.49820397  0.09833297  0.05319498    -0.05200
C262        C  0.49512669  0.08235454  0.08067820    -0.22600
H263        H  0.49204668  0.08746684  0.14284779     0.19200
H264        H  0.50769682  0.20441116  0.08329130     0.18000
H265        H  0.50708499  0.23881478  0.14007616     0.14300
H266        H  0.49172377  0.05315244  0.08598981     0.14200
H267        H  0.49386172  0.13734793  0.18833493     0.32300
H268        H  0.50492564  0.15470554  0.03780820     0.35100
C269        C  0.00056560  0.82430167  0.63020269     0.20700
C270        C  0.00098326  0.82178628  0.59990115    -0.39200
C271        C  0.00096301  0.85576138  0.58506132     0.19700
C272        C  0.00051864  0.88969990  0.59926246     0.22300
C273        C  0.00005421  0.89222841  0.62960984    -0.39700
C274        C  0.00012013  0.85819977  0.64447436     0.21100
N275        N  0.00066076  0.79604796  0.64921188    -0.33000
C276        C  0.00030811  0.81206529  0.67578476    -0.10500
C277        C  0.99994564  0.85078432  0.67374377    -0.29300
N278        N  0.00059476  0.91787119  0.58012583    -0.45900
C279        C  0.00107945  0.90164504  0.55359548    -0.05200
C280        C  0.00133547  0.86296998  0.55581454    -0.22600
H281        H  0.00135945  0.79532522  0.58870239     0.19200
H282        H  0.99972710  0.91869167  0.64080663     0.18000
H283        H  0.99966862  0.87076101  0.69130343     0.14300
H284        H  0.00169390  0.84284200  0.53835836     0.14200
H285        H  0.00102624  0.76764380  0.64440518     0.32300
H286        H  0.00028737  0.94630790  0.58481862     0.35100
C287        C  0.99924489  0.64813593  0.85784885     0.20700
C288        C  0.99953430  0.61244931  0.87018105    -0.39200
C289        C  0.99817432  0.61128088  0.90055281     0.19700
C290        C  0.99657379  0.64324034  0.91727041     0.22300
C291        C  0.99613642  0.67888780  0.90494576    -0.39700
C292        C  0.99761243  0.68005818  0.87460852     0.21100
N293        N  0.00058360  0.65677250  0.82955309    -0.33000
C294        C  0.99987768  0.69444404  0.82830389    -0.10500
C295        C  0.99800432  0.70998365  0.85597197    -0.29300
N296        N  0.99592818  0.63474011  0.94557418    -0.45900
C297        C  0.99714129  0.59709789  0.94696438    -0.05200
C298        C  0.99849504  0.58141801  0.91930243    -0.22600
H299        H  0.00092018  0.58747393  0.85710452     0.19200
H300        H  0.99496779  0.70386767  0.91802709     0.18000
H301        H  0.99703814  0.73918244  0.86165739     0.14300
H302        H  0.99982377  0.55220220  0.91369882     0.14200
H303        H  0.00193045  0.63818502  0.81216455     0.32300
H304        H  0.99487990  0.65345386  0.96289369     0.35100
C305        C  0.29210373  0.77020709  0.75039904     0.20700
C306        C  0.25281382  0.79219318  0.75043891    -0.39200
C307        C  0.21146960  0.77265098  0.75082449     0.19700
C308        C  0.20942116  0.73415891  0.75056469     0.22300
C309        C  0.24872274  0.71216834  0.75089058    -0.39700
C310        C  0.29007375  0.73172284  0.75110644     0.21100
N311        N  0.33547607  0.78202962  0.74984022    -0.33000
C312        C  0.36115645  0.75085290  0.75065146    -0.10500
C313        C  0.33414854  0.71893497  0.75163430    -0.29300
N314        N  0.16602233  0.72235322  0.75033852    -0.45900
C315        C  0.14036021  0.75356032  0.75097182    -0.05200
C316        C  0.16741434  0.78547252  0.75138897    -0.22600
H317        H  0.25432478  0.82227788  0.75026727     0.19200
H318        H  0.24721668  0.68208304  0.75106478     0.18000
H319        H  0.34530630  0.69029092  0.75217214     0.14300
H320        H  0.15629762  0.81413170  0.75177351     0.14200
H321        H  0.34693173  0.80955793  0.74918820     0.32300
H322        H  0.15454051  0.69482025  0.75016437     0.35100
C323        C  0.79185145  0.77118161  0.75135424     0.20700
C324        C  0.75220882  0.79260606  0.74924615    -0.39200
C325        C  0.71115885  0.77259794  0.74960213     0.19700
C326        C  0.70969021  0.73426977  0.75247171     0.22300
C327        C  0.74932848  0.71281674  0.75425671    -0.39700
C328        C  0.79038159  0.73275323  0.75329280     0.21100
N329        N  0.83508073  0.78346815  0.75134416    -0.33000
C330        C  0.86120077  0.75256522  0.75275790    -0.10500
C331        C  0.83463172  0.72041492  0.75390171    -0.29300
N332        N  0.66647568  0.72201319  0.75303924    -0.45900
C333        C  0.64031098  0.75271212  0.75007584    -0.05200
C334        C  0.66690093  0.78476868  0.74771652    -0.22600
H335        H  0.75325175  0.82260002  0.74732040     0.19200
H336        H  0.74828854  0.68281394  0.75610475     0.18000
H337        H  0.84619672  0.69191956  0.75518204     0.14300
H338        H  0.65534617  0.81315852  0.74540922     0.14200
H339        H  0.84617010  0.81104982  0.74996334     0.32300
H340        H  0.65544723  0.69448688  0.75511300     0.35100
C341        C  0.50248573  0.82397257  0.87136458     0.20700
C342        C  0.50437159  0.82187928  0.90167681    -0.39200
C343        C  0.50196540  0.85595947  0.91634099     0.19700
C344        C  0.49808512  0.88958464  0.90195016     0.22300
C345        C  0.49632401  0.89168898  0.87161043    -0.39700
C346        C  0.49866645  0.85757645  0.85693024     0.21100
N347        N  0.50381585  0.79555118  0.85249177    -0.33000
C348        C  0.50090002  0.81117915  0.82584781    -0.10500
C349        C  0.49765348  0.84980917  0.82771232    -0.29300
N350        N  0.49613207  0.91792804  0.92090397    -0.45900
C351        C  0.49867519  0.90215791  0.94752816    -0.05200
C352        C  0.50239687  0.86357356  0.94555053    -0.22600
H353        H  0.50729906  0.79564562  0.91301005     0.19200
H354        H  0.49319729  0.91791081  0.86028480     0.18000
H355        H  0.49477346  0.86949722  0.81007623     0.14300
H356        H  0.50495977  0.84376868  0.96313153     0.14200
H357        H  0.50653434  0.76728508  0.85743071     0.32300
H358        H  0.49308540  0.94618963  0.91603232     0.35100
C359        C  0.49702898  0.61189575  0.59850126     0.20700
C360        C  0.49781021  0.61001300  0.62888336    -0.39200
C361        C  0.49778339  0.64434976  0.64337593     0.19700
C362        C  0.49693705  0.67794854  0.62872966     0.22300
C363        C  0.49592696  0.67981768  0.59838790    -0.39700
C364        C  0.49605419  0.64552986  0.58391702     0.21100
N365        N  0.49774428  0.58333166  0.57968160    -0.33000
C366        C  0.49731349  0.59897736  0.55295211    -0.10500
C367        C  0.49612849  0.63769726  0.55474028    -0.29300
N368        N  0.49752082  0.70660069  0.64743053    -0.45900
C369        C  0.49876099  0.69115822  0.67419538    -0.05200
C370        C  0.49891663  0.65238523  0.67256351    -0.22600
H371        H  0.49873788  0.58378869  0.64037498     0.19200
H372        H  0.49543269  0.70604426  0.58688613     0.18000
H373        H  0.49585914  0.65746350  0.53705212     0.14300
H374        H  0.49987032  0.63276375  0.69033455     0.14200
H375        H  0.49883243  0.55501318  0.58470642     0.32300
H376        H  0.49716493  0.73490308  0.64230002     0.35100
C377        C  0.99704178  0.14675041  0.64244532     0.20700
C378        C  0.99627326  0.11133042  0.62969171    -0.39200
C379        C  0.99677177  0.11075387  0.59932331     0.19700
C380        C  0.99790468  0.14299263  0.58293543     0.22300
C381        C  0.99868548  0.17842582  0.59569878    -0.39700
C382        C  0.99821320  0.17901153  0.62608299     0.21100
N383        N  0.99700961  0.15476549  0.67085537    -0.33000
C384        C  0.99822718  0.19238827  0.67262596    -0.10500
C385        C  0.99895651  0.20853939  0.64514883    -0.29300
N386        N  0.99832971  0.13492476  0.55451839    -0.45900
C387        C  0.99752913  0.09728354  0.55280779    -0.05200
C388        C  0.99652172  0.08121201  0.58031354    -0.22600
H389        H  0.99546247  0.08609724  0.64247123     0.19200
H390        H  0.99968763  0.20365250  0.58291931     0.18000
H391        H  0.00004472  0.23785667  0.63986506     0.14300
H392        H  0.99585698  0.05190178  0.58566073     0.14200
H393        H  0.99633305  0.13579111  0.68799215     0.32300
H394        H  0.99928480  0.15386452  0.53736216     0.35100
C395        C  0.00326273  0.35115264  0.85760443     0.20700
C396        C  0.00716375  0.38642613  0.87040468    -0.39200
C397        C  0.00242845  0.38739148  0.90062383     0.19700
C398        C  0.99453250  0.35561947  0.91683211     0.22300
C399        C  0.99053417  0.32033364  0.90401966    -0.39700
C400        C  0.99529585  0.31936317  0.87378234     0.21100
N401        N  0.00629705  0.34288237  0.82930274    -0.33000
C402        C  0.00034203  0.30555892  0.82740552    -0.10500
C403        C  0.99342498  0.28985097  0.85470612    -0.29300
N404        N  0.99181939  0.36392802  0.94515545    -0.45900
C405        C  0.99790508  0.40126177  0.94699369    -0.05200
C406        C  0.00451993  0.41690820  0.91964960    -0.22600
H407        H  0.01345206  0.41127371  0.85776352     0.19200
H408        H  0.98431780  0.29547967  0.91666687     0.18000
H409        H  0.98752980  0.26086101  0.85985157     0.14300
H410        H  0.01045973  0.44587654  0.91444159     0.14200
H411        H  0.01203284  0.36150757  0.81230622     0.32300
H412        H  0.98621093  0.34532672  0.96218720     0.35100
C413        C  0.20871804  0.26664948  0.75142665     0.20700
C414        C  0.24777204  0.28911951  0.75233820    -0.39200
C415        C  0.28928459  0.27014603  0.75255466     0.19700
C416        C  0.29174511  0.23172200  0.75134543     0.22300
C417        C  0.25261467  0.20918826  0.75083070    -0.39700
C418        C  0.21100264  0.22818348  0.75118298     0.21100
N419        N  0.16532348  0.27802347  0.75086047    -0.33000
C420        C  0.13970322  0.24664291  0.75072416    -0.10500
C421        C  0.16688614  0.21492130  0.75106471    -0.29300
N422        N  0.33531166  0.22058577  0.75083767    -0.45900
C423        C  0.36061965  0.25214238  0.75217128    -0.05200
C424        C  0.33317208  0.28360122  0.75344120    -0.22600
H425        H  0.24595408  0.31917625  0.75284954     0.19200
H426        H  0.25443983  0.17913574  0.75020755     0.18000
H427        H  0.15585920  0.18616291  0.75084263     0.14300
H428        H  0.34392334  0.31240694  0.75436628     0.14200
H429        H  0.15377778  0.30546499  0.75086086     0.32300
H430        H  0.34713091  0.19325433  0.74984396     0.35100
C431        C  0.70878431  0.23612742  0.74996103     0.20700
C432        C  0.74782633  0.21395240  0.74908817    -0.39200
C433        C  0.78930082  0.23321324  0.74940983     0.19700
C434        C  0.79179869  0.27168112  0.74998164     0.22300
C435        C  0.75267515  0.29390838  0.75119790    -0.39700
C436        C  0.71110203  0.27456931  0.75142887     0.21100
N437        N  0.66538162  0.22446084  0.74964329    -0.33000
C438        C  0.63983349  0.25562984  0.75132553    -0.10500
C439        C  0.66704232  0.28746667  0.75266020    -0.29300
N440        N  0.83538778  0.28311823  0.74964454    -0.45900
C441        C  0.86058728  0.25162462  0.74935065    -0.05200
C442        C  0.83310961  0.21999295  0.74927774    -0.22600
H443        H  0.74603937  0.18389164  0.74831384     0.19200
H444        H  0.75446756  0.32396725  0.75201590     0.18000
H445        H  0.65603095  0.31611599  0.75387746     0.14300
H446        H  0.84381180  0.19122423  0.74899433     0.14200
H447        H  0.65382007  0.19698311  0.74854778     0.32300
H448        H  0.84727770  0.31053216  0.75004814     0.35100
C449        C  0.49954495  0.32449440  0.62961753     0.20700
C450        C  0.49947068  0.32203734  0.59927948    -0.39200
C451        C  0.50094623  0.35604848  0.58444798     0.19700
C452        C  0.50225783  0.38992774  0.59871741     0.22300
C453        C  0.50222361  0.39239325  0.62906280    -0.39700
C454        C  0.50083758  0.35837018  0.64389918     0.21100
N455        N  0.49875501  0.29623837  0.64865823    -0.33000
C456        C  0.49955109  0.31226169  0.67524634    -0.10500
C457        C  0.50080032  0.35096579  0.67316819    -0.29300
N458        N  0.50348729  0.41815726  0.57965628    -0.45900
C459        C  0.50299113  0.40210057  0.55306708    -0.05200
C460        C  0.50145084  0.36340396  0.55518262    -0.22600
H461        H  0.49850296  0.29560179  0.58805337     0.19200
H462        H  0.50331985  0.41882812  0.64028659     0.18000
H463        H  0.50182183  0.37095155  0.69071273     0.14300
H464        H  0.50065541  0.34337527  0.53766166     0.14200
H465        H  0.49787910  0.26783371  0.64386517     0.32300
H466        H  0.50454730  0.44655891  0.58444584     0.35100
C467        C  0.49861328  0.14964955  0.85807642     0.16700
C468        C  0.49410758  0.11423489  0.87053981    -0.39200
C469        C  0.49771156  0.11291646  0.90081577     0.19700
C470        C  0.50525326  0.14448042  0.91736013     0.22300
C471        C  0.50997948  0.17987593  0.90488538    -0.39700
C472        C  0.50621140  0.18121282  0.87461595     0.21100
N473        N  0.49607925  0.15834001  0.82983813    -0.33000
C474        C  0.50190777  0.19570773  0.82837683    -0.10500
C475        C  0.50833092  0.21100778  0.85586596    -0.29300
N476        N  0.50659955  0.13591139  0.94565680    -0.45900
C477        C  0.49992573  0.09862430  0.94716859    -0.05200
C478        C  0.49436249  0.08325351  0.91962161    -0.22600
H479        H  0.48794308  0.08957845  0.85763088     0.19200
H480        H  0.51574879  0.20457765  0.91781513     0.18000
H481        H  0.51378549  0.23995640  0.86135918     0.14300
H482        H  0.48822194  0.05438965  0.91413978     0.14200
H483        H  0.49047450  0.13999802  0.81262484     0.32300
H484        H  0.51161188  0.15434200  0.96288919     0.35100
C485        C  0.00104735  0.88803127  0.40212505     0.20700
C486        C  0.00182661  0.89013454  0.37176285    -0.39200
C487        C  0.00073869  0.85592641  0.35712756     0.19700
C488        C  0.99900210  0.82223269  0.37162221     0.22300
C489        C  0.99822670  0.82013618  0.40196095    -0.39700
C490        C  0.99934739  0.85431174  0.41657855     0.21100
N491        N  0.00180583  0.91647300  0.42103877    -0.33000
C492        C  0.00063613  0.90067441  0.44769976    -0.10500
C493        C  0.99909453  0.86196807  0.44578545    -0.29300
N494        N  0.99830361  0.79374550  0.35277565    -0.45900
C495        C  0.99959454  0.80941076  0.32608231    -0.05200
C496        C  0.00112711  0.84814048  0.32790140    -0.22600
H497        H  0.00319897  0.91643488  0.36038405     0.19200
H498        H  0.99688816  0.79383902  0.41334629     0.18000
H499        H  0.99790914  0.84211812  0.46340486     0.14300
H500        H  0.00242237  0.86789447  0.31022351     0.14200
H501        H  0.00307875  0.94482494  0.41611587     0.32300
H502        H  0.99704983  0.76541289  0.35776446     0.35100
C503        C  0.00360592  0.67645429  0.12872232     0.20700
C504        C  0.00552117  0.67830439  0.09839286    -0.39200
C505        C  0.00286312  0.64410719  0.08386817     0.19700
C506        C  0.99883787  0.61056287  0.09839079     0.22300
C507        C  0.99717291  0.60868792  0.12875903    -0.39700
C508        C  0.99968022  0.64293707  0.14330206     0.21100
N509        N  0.00457180  0.70507036  0.14746106    -0.33000
C510        C  0.00120236  0.68967665  0.17417879    -0.10500
C511        C  0.99824402  0.65097637  0.17247948    -0.29300
N512        N  0.99666877  0.58207906  0.07952959    -0.45900
C513        C  0.99924977  0.59768952  0.05283221    -0.05200
C514        C  0.00312775  0.63630467  0.05468584    -0.22600
H515        H  0.00846484  0.70446692  0.08693446     0.19200
H516        H  0.99384561  0.58254526  0.14020398     0.18000
H517        H  0.99501316  0.63142065  0.19019579     0.14300
H518        H  0.00577405  0.65601567  0.03703279     0.14200
H519        H  0.00713382  0.73332111  0.14238154     0.32300
H520        H  0.99350851  0.55383447  0.08450425     0.35100
C521        C  0.29043114  0.73058778  0.24943071     0.20700
C522        C  0.25062653  0.70899662  0.24986127    -0.39200
C523        C  0.20978899  0.72893645  0.25028398     0.19700
C524        C  0.20866131  0.76743755  0.24971454     0.22300
C525        C  0.24849898  0.78905529  0.24968902    -0.39700
C526        C  0.28938152  0.76909701  0.24983993     0.21100
N527        N  0.33346883  0.71829464  0.24874885    -0.33000
C528        C  0.35998181  0.74917348  0.24918597    -0.10500
C529        C  0.33380957  0.78141432  0.25003478    -0.29300
N530        N  0.16554455  0.77963357  0.24940307    -0.45900
C531        C  0.13917763  0.74866239  0.25026799    -0.05200
C532        C  0.16546349  0.71651982  0.25096824    -0.22600
H533        H  0.25140183  0.67889985  0.24989332     0.19200
H534        H  0.24771859  0.81915216  0.24959206     0.18000
H535        H  0.34571301  0.80994106  0.25032066     0.14300
H536        H  0.15367868  0.68796622  0.25148189     0.14200
H537        H  0.34418855  0.69063492  0.24829478     0.32300
H538        H  0.15469447  0.80725685  0.24892110     0.35100
C539        C  0.70812118  0.76515016  0.24870049     0.20700
C540        C  0.74729637  0.78754128  0.24962812    -0.39200
C541        C  0.78878897  0.76846946  0.24907685     0.19700
C542        C  0.79100507  0.73001327  0.24829117     0.22300
C543        C  0.75182288  0.70764599  0.24698586    -0.39700
C544        C  0.71033442  0.72674861  0.24694755     0.21100
N545        N  0.66469251  0.77649298  0.24932796    -0.33000
C546        C  0.63908595  0.74515891  0.24754649    -0.10500
C547        C  0.66626675  0.71354343  0.24583204    -0.29300
N548        N  0.83444076  0.71861589  0.24873005    -0.45900
C549        C  0.86002861  0.75002976  0.24930129    -0.05200
C550        C  0.83284911  0.78172012  0.24940116    -0.22600
H551        H  0.74558266  0.81758012  0.25068353     0.19200
H552        H  0.75352813  0.67760231  0.24604963     0.18000
H553        H  0.65525380  0.68482714  0.24454436     0.14300
H554        H  0.84386245  0.81047421  0.25000936     0.14200
H555        H  0.65313399  0.80387079  0.25074960     0.32300
H556        H  0.84602703  0.69119270  0.24832547     0.35100
C557        C  0.49662083  0.85674710  0.08319997     0.20700
C558        C  0.49350890  0.82125267  0.09564537    -0.39200
C559        C  0.49727492  0.82000566  0.12589445     0.19700
C560        C  0.50370122  0.85170286  0.14247294     0.22300
C561        C  0.50695762  0.88723468  0.13000487    -0.39700
C562        C  0.50301580  0.88849924  0.09972013     0.21100
N563        N  0.49393202  0.86528960  0.05495670    -0.33000
C564        C  0.49847286  0.90276537  0.05340489    -0.10500
C565        C  0.50416388  0.91829541  0.08090250    -0.29300
N566        N  0.50566604  0.84305689  0.17075930    -0.45900
C567        C  0.50046365  0.80560761  0.17216430    -0.05200
C568        C  0.49524164  0.79022257  0.14461674    -0.22600
H569        H  0.48833698  0.79645391  0.08272731     0.19200
H570        H  0.51189750  0.91205281  0.14293495     0.18000
H571        H  0.50869289  0.94736344  0.08634919     0.14300
H572        H  0.49023813  0.76123445  0.13907937     0.14200
H573        H  0.48918902  0.84672260  0.03778147     0.32300
H574        H  0.51011982  0.86149716  0.18804237     0.35100
C575        C  0.50129086  0.67511776  0.37021231     0.20700
C576        C  0.50237106  0.67770442  0.40051855    -0.39200
C577        C  0.50203227  0.64377513  0.41544258     0.19700
C578        C  0.50084530  0.60980376  0.40130738     0.22300
C579        C  0.49985160  0.60719877  0.37095039    -0.39700
C580        C  0.50007468  0.64119323  0.35599837     0.21100
N581        N  0.50111938  0.70333317  0.35115470    -0.33000
C582        C  0.49975010  0.68731404  0.32458536    -0.10500
C583        C  0.49908633  0.64857694  0.32669812    -0.29300
N584        N  0.50050044  0.58169287  0.42051233    -0.45900
C585        C  0.50136714  0.59797601  0.44702767    -0.05200
C586        C  0.50237343  0.63664563  0.44472194    -0.22600
H587        H  0.50322605  0.70419776  0.41166500     0.19200
H588        H  0.49880884  0.58070291  0.35981276     0.18000
H589        H  0.49801295  0.62856803  0.30917115     0.14300
H590        H  0.50309169  0.65682180  0.46214189     0.14200
H591        H  0.50188028  0.73174302  0.35593438     0.32300
H592        H  0.49951694  0.55324872  0.41587331     0.35100
loop_ 
_geom_bond_atom_site_label_1 
_geom_bond_atom_site_label_2 
_geom_bond_distance 
_geom_bond_site_symmetry_2 
_ccdc_geom_bond_type 
O1           Cu9   2.017       .  S
O1           C11   1.279       .  A
O2           Cu9   2.003       .  S
O2           C12   1.276       .  A
O3           Cu9   2.006       .  S
O3           C13   1.277       .  A
O4           Cu9   2.003       .  S
O4           C14   1.276       .  A
O5          Cu10   2.014       .  S
O5           C14   1.278       .  A
O6          Cu10   2.011       .  S
O6           C13   1.277       .  A
O7          Cu10   2.015       .  S
O7           C12   1.279       .  A
O8          Cu10   2.003       .  S
O8           C11   1.276       .  A
Cu9         Cu10   2.376       .  S
C11         C582   1.471       .  S
C12         C567   1.470       .  S
C13         C528   1.466       .  S
C14         C546   1.468       .  S
O15         Cu23   2.007   1_455  S
O15          C25   1.277       .  A
O16         Cu23   2.008       .  S
O16          C26   1.277       .  A
O17         Cu23   2.001       .  S
O17          C27   1.276   1_655  A
O18         Cu23   2.016       .  S
O18          C28   1.278       .  A
O19         Cu24   2.003   1_655  S
O19          C28   1.277       .  A
O20         Cu24   2.020       .  S
O20          C27   1.279       .  A
O21         Cu24   2.012   1_655  S
O21          C26   1.278       .  A
O22         Cu24   2.008       .  S
O22          C25   1.277       .  A
Cu23        Cu24   2.376   1_655  S
C25         C531   1.466       .  S
C26         C549   1.468       .  S
C27         C510   1.471       .  S
C28         C495   1.470       .  S
O29         Cu37   2.009       .  S
O29          C39   1.277       .  A
O30         Cu37   2.007       .  S
O30          C40   1.277       .  A
O31         Cu37   2.017       .  S
O31          C41   1.278       .  A
O32         Cu37   2.001       .  S
O32          C42   1.276       .  A
O33         Cu38   2.016       .  S
O33          C42   1.279       .  A
O34         Cu38   2.001       .  S
O34          C41   1.277       .  A
O35         Cu38   2.011       .  S
O35          C40   1.278       .  A
O36         Cu38   2.008       .  S
O36          C39   1.277       .  A
Cu37        Cu38   2.376       .  S
C39         C438   1.467       .  S
C40         C423   1.468       .  S
C41         C456   1.470       .  S
C42         C474   1.469       .  S
O43         Cu51   2.006       .  S
O43          C53   1.277       .  A
O44         Cu51   2.013   1_455  S
O44          C54   1.278       .  A
O45         Cu51   2.017       .  S
O45          C55   1.279   1_655  A
O46         Cu51   2.000       .  S
O46          C56   1.276       .  A
O47         Cu52   2.016       .  S
O47          C56   1.279   1_455  A
O48         Cu52   2.001       .  S
O48          C55   1.276       .  A
O49         Cu52   2.006       .  S
O49          C54   1.277       .  A
O50         Cu52   2.010   1_655  S
O50          C53   1.277       .  A
Cu51        Cu52   2.376   1_655  S
C53         C441   1.466       .  S
C54         C420   1.468       .  S
C55         C402   1.470       .  S
C56         C384   1.469       .  S
O57         Cu65   2.001       .  S
O57          C67   1.276       .  A
O58         Cu65   2.013       .  S
O58          C68   1.278       .  A
O59         Cu65   2.008       .  S
O59          C69   1.277       .  A
O60         Cu65   2.010       .  S
O60          C70   1.277       .  A
O61         Cu66   2.009       .  S
O61          C70   1.277       .  A
O62         Cu66   2.007       .  S
O62          C69   1.277       .  A
O63         Cu66   2.003       .  S
O63          C68   1.277       .  A
O64         Cu66   2.019       .  S
O64          C67   1.279       .  A
Cu65        Cu66   2.376       .  S
C67         C369   1.471       .  S
C68         C348   1.469       .  S
C69         C312   1.466       .  S
C70         C333   1.468       .  S
O71         Cu79   2.001       .  S
O71          C81   1.276       .  A
O72         Cu79   2.015       .  S
O72          C82   1.278       .  A
O73         Cu79   2.007       .  S
O73          C83   1.277       .  A
O74         Cu79   2.006   1_655  S
O74          C84   1.277       .  A
O75         Cu80   2.012   1_655  S
O75          C84   1.277       .  A
O76         Cu80   2.011       .  S
O76          C83   1.278       .  A
O77         Cu80   1.998       .  S
O77          C82   1.276       .  A
O78         Cu80   2.015       .  S
O78          C81   1.279       .  A
Cu79        Cu80   2.377       .  S
C81         C294   1.470   1_455  S
C82         C276   1.468       .  S
C83         C315   1.467       .  S
C84         C330   1.467       .  S
C85         C564   1.471       .  S
C85          N86   1.358       .  A
C85          N90   1.356       .  A
N86          C87   1.360       .  A
C87          C95   1.470   1_565  S
C87          N88   1.360   1_554  A
N88          C89   1.358       .  A
C89         C351   1.470       .  S
C89          N90   1.356   1_556  A
C91         C261   1.470       .  S
C91          N92   1.357       .  A
C91          N96   1.358       .  A
N92          C93   1.357   1_554  A
C93         C477   1.471       .  S
C93          N94   1.359       .  A
N94          C95   1.360   1_556  A
C95          N96   1.359       .  A
C97         C459   1.471       .  S
C97          N98   1.359       .  A
C97         N102   1.358       .  A
N98          C99   1.360       .  A
C99         C105   1.470       .  S
C99         N100   1.359       .  A
N100        C101   1.358       .  A
C101        C240   1.471       .  S
C101        N102   1.357       .  A
C103        C366   1.472       .  S
C103        N104   1.359       .  A
C103        N108   1.357       .  A
N104        C105   1.360       .  A
C105        N106   1.360       .  A
N106        C107   1.357       .  A
C107        C585   1.471       .  S
C107        N108   1.356       .  A
C109        C492   1.470       .  S
C109        N110   1.356       .  A
C109        N114   1.358       .  A
N110        C111   1.356       .  A
C111        C279   1.470       .  S
C111        N112   1.358       .  A
N112        C113   1.360       .  A
C113        C117   1.469   1_565  S
C113        N114   1.360       .  A
C115        C225   1.471   1_655  S
C115        N116   1.358   1_655  A
C115        N120   1.358       .  A
N116        C117   1.358       .  A
C117        N118   1.358   1_455  A
N118        C119   1.358       .  A
C119        C387   1.471       .  S
C119        N120   1.358       .  A
C121        C405   1.471       .  S
C121        N122   1.359       .  A
C121        N126   1.357   1_556  A
N122        C123   1.359   1_556  A
C123        C129   1.471       .  S
C123        N124   1.359       .  A
N124        C125   1.359       .  A
C125        C207   1.471       .  S
C125        N126   1.357       .  A
C127        C297   1.471       .  S
C127        N128   1.358       .  A
C127        N132   1.356       .  A
N128        C129   1.360   1_556  A
C129        N130   1.361       .  A
N130        C131   1.359       .  A
C131        C513   1.472       .  S
C131        N132   1.356   1_554  A
O133       Cu141   2.000       .  S
O133        C143   1.276       .  A
O134       Cu141   2.014       .  S
O134        C144   1.279       .  A
O135       Cu141   2.008       .  S
O135        C145   1.277       .  A
O136       Cu141   2.010       .  S
O136        C146   1.277       .  A
O137       Cu142   2.008       .  S
O137        C146   1.277       .  A
O138       Cu142   2.009       .  S
O138        C145   1.277       .  A
O139       Cu142   2.002       .  S
O139        C144   1.276       .  A
O140       Cu142   2.016       .  S
O140        C143   1.279       .  A
Cu141      Cu142   2.376       .  S
C143        C258   1.469       .  S
C144        C243   1.469       .  S
C145        C168   1.467       .  S
C146        C186   1.467       .  S
O147       Cu155   2.004       .  S
O147        C157   1.277       .  A
O148       Cu155   2.019       .  S
O148        C158   1.279       .  A
O149       Cu155   2.007   1_455  S
O149        C159   1.277       .  A
O150       Cu155   2.009       .  S
O150        C160   1.277       .  A
O151       Cu156   2.010       .  S
O151        C160   1.277       .  A
O152       Cu156   2.009   1_455  S
O152        C159   1.277       .  A
O153       Cu156   1.998       .  S
O153        C158   1.276       .  A
O154       Cu156   2.013       .  S
O154        C157   1.278       .  A
Cu155      Cu156   2.376       .  S
C157        C222   1.470       .  S
C158        C204   1.470   1_655  S
C159        C171   1.466       .  S
C160        C189   1.468       .  S
C161        N167   1.343       .  A
C161        C166   1.385       .  A
C161        C162   1.403       .  A
C162        C163   1.402       .  A
C162        H173   1.082       .  S
C163        C172   1.378       .  A
C163        C164   1.385       .  A
C164        N170   1.343       .  A
C164        C165   1.403       .  A
C165        C166   1.402       .  A
C165        H174   1.082       .  S
C166        C169   1.377       .  A
N167        C168   1.355       .  A
N167        H177   1.045       .  S
C168        C169   1.394       .  A
C169        H175   1.082       .  S
N170        C171   1.354       .  A
N170        H178   1.045       .  S
C171        C172   1.394       .  A
C172        H176   1.082       .  S
C179        N185   1.344       .  A
C179        C184   1.385       .  A
C179        C180   1.403       .  A
C180        C181   1.403       .  A
C180        H191   1.082       .  S
C181        C190   1.377       .  A
C181        C182   1.385       .  A
C182        N188   1.343       .  A
C182        C183   1.403       .  A
C183        C184   1.402       .  A
C183        H192   1.082       .  S
C184        C187   1.377       .  A
N185        C186   1.355       .  A
N185        H195   1.045       .  S
C186        C187   1.394       .  A
C187        H193   1.082       .  S
N188        C189   1.355       .  A
N188        H196   1.045       .  S
C189        C190   1.394       .  A
C190        H194   1.082       .  S
C197        N203   1.342       .  A
C197        C202   1.385   1_655  A
C197        C198   1.403       .  A
C198        C199   1.402       .  A
C198        H209   1.082       .  S
C199        C208   1.378       .  A
C199        C200   1.384   1_655  A
C200        N206   1.342       .  A
C200        C201   1.403       .  A
C201        C202   1.402       .  A
C201        H210   1.082       .  S
C202        C205   1.379       .  A
N203        C204   1.356   1_655  A
N203        H213   1.045       .  S
C204        C205   1.395       .  A
C205        H211   1.082       .  S
N206        C207   1.356   1_455  A
N206        H214   1.045       .  S
C207        C208   1.395       .  A
C208        H212   1.082       .  S
C215        N221   1.343       .  A
C215        C220   1.385   1_455  A
C215        C216   1.403       .  A
C216        C217   1.402       .  A
C216        H227   1.082       .  S
C217        C226   1.378       .  A
C217        C218   1.385   1_455  A
C218        N224   1.343       .  A
C218        C219   1.403       .  A
C219        C220   1.402       .  A
C219        H228   1.082       .  S
C220        C223   1.377       .  A
N221        C222   1.356   1_455  A
N221        H231   1.045       .  S
C222        C223   1.395       .  A
C223        H229   1.082       .  S
N224        C225   1.355   1_655  A
N224        H232   1.045       .  S
C225        C226   1.395       .  A
C226        H230   1.082       .  S
C233        N239   1.342       .  A
C233        C238   1.385       .  A
C233        C234   1.403       .  A
C234        C235   1.402       .  A
C234        H245   1.082       .  S
C235        C244   1.377       .  A
C235        C236   1.385       .  A
C236        N242   1.343       .  A
C236        C237   1.403       .  A
C237        C238   1.402       .  A
C237        H246   1.082       .  S
C238        C241   1.378       .  A
N239        C240   1.356       .  A
N239        H249   1.045       .  S
C240        C241   1.395       .  A
C241        H247   1.082       .  S
N242        C243   1.356       .  A
N242        H250   1.045       .  S
C243        C244   1.394       .  A
C244        H248   1.082       .  S
C251        N257   1.342       .  A
C251        C256   1.385       .  A
C251        C252   1.403       .  A
C252        C253   1.402       .  A
C252        H263   1.082       .  S
C253        C262   1.378       .  A
C253        C254   1.385       .  A
C254        N260   1.342       .  A
C254        C255   1.403       .  A
C255        C256   1.401       .  A
C255        H264   1.082       .  S
C256        C259   1.378       .  A
N257        C258   1.356       .  A
N257        H267   1.045       .  S
C258        C259   1.394       .  A
C259        H265   1.082       .  S
N260        C261   1.355       .  A
N260        H268   1.045       .  S
C261        C262   1.395       .  A
C262        H266   1.082       .  S
C269        N275   1.342       .  A
C269        C274   1.385       .  A
C269        C270   1.401       .  A
C270        C271   1.401       .  A
C270        H281   1.082       .  S
C271        C280   1.374       .  A
C271        C272   1.385       .  A
C272        N278   1.344       .  A
C272        C273   1.403       .  A
C273        C274   1.403       .  A
C273        H282   1.082   1_455  S
C274        C277   1.377   1_455  A
N275        C276   1.354       .  A
N275        H285   1.045       .  S
C276        C277   1.395   1_455  A
C277        H283   1.082       .  S
N278        C279   1.356       .  A
N278        H286   1.045       .  S
C279        C280   1.394       .  A
C280        H284   1.083       .  S
C287        N293   1.343   1_655  A
C287        C292   1.384       .  A
C287        C288   1.404       .  A
C288        C289   1.403       .  A
C288        H299   1.082   1_655  S
C289        C298   1.379       .  A
C289        C290   1.384       .  A
C290        N296   1.341       .  A
C290        C291   1.403       .  A
C291        C292   1.401       .  A
C291        H300   1.082       .  S
C292        C295   1.378       .  A
N293        C294   1.356   1_455  A
N293        H303   1.045       .  S
C294        C295   1.394       .  A
C295        H301   1.082       .  S
N296        C297   1.356       .  A
N296        H304   1.045       .  S
C297        C298   1.396       .  A
C298        H302   1.082       .  S
C305        N311   1.343       .  A
C305        C310   1.385       .  A
C305        C306   1.402       .  A
C306        C307   1.402       .  A
C306        H317   1.082       .  S
C307        C316   1.377       .  A
C307        C308   1.385       .  A
C308        N314   1.343       .  A
C308        C309   1.403       .  A
C309        C310   1.402       .  A
C309        H318   1.082       .  S
C310        C313   1.377       .  A
N311        C312   1.355       .  A
N311        H321   1.045       .  S
C312        C313   1.394       .  A
C313        H319   1.082       .  S
N314        C315   1.355       .  A
N314        H322   1.045       .  S
C315        C316   1.394       .  A
C316        H320   1.082       .  S
C323        N329   1.344       .  A
C323        C328   1.385       .  A
C323        C324   1.403       .  A
C324        C325   1.403       .  A
C324        H335   1.082       .  S
C325        C334   1.377       .  A
C325        C326   1.385       .  A
C326        N332   1.343       .  A
C326        C327   1.403       .  A
C327        C328   1.402       .  A
C327        H336   1.082       .  S
C328        C331   1.377       .  A
N329        C330   1.355       .  A
N329        H339   1.045       .  S
C330        C331   1.394       .  A
C331        H337   1.082       .  S
N332        C333   1.355       .  A
N332        H340   1.045       .  S
C333        C334   1.394       .  A
C334        H338   1.082       .  S
C341        N347   1.343       .  A
C341        C346   1.385       .  A
C341        C342   1.402       .  A
C342        C343   1.401       .  A
C342        H353   1.082       .  S
C343        C352   1.375       .  A
C343        C344   1.385       .  A
C344        N350   1.344       .  A
C344        C345   1.403       .  A
C345        C346   1.403       .  A
C345        H354   1.082       .  S
C346        C349   1.377       .  A
N347        C348   1.355       .  A
N347        H357   1.045       .  S
C348        C349   1.395       .  A
C349        H355   1.082       .  S
N350        C351   1.355       .  A
N350        H358   1.045       .  S
C351        C352   1.395       .  A
C352        H356   1.083       .  S
C359        N365   1.345       .  A
C359        C364   1.385       .  A
C359        C360   1.404       .  A
C360        C361   1.404       .  A
C360        H371   1.082       .  S
C361        C370   1.378       .  A
C361        C362   1.385       .  A
C362        N368   1.343       .  A
C362        C363   1.402       .  A
C363        C364   1.402       .  A
C363        H372   1.082       .  S
C364        C367   1.375       .  A
N365        C366   1.356       .  A
N365        H375   1.045       .  S
C366        C367   1.395       .  A
C367        H373   1.083       .  S
N368        C369   1.355       .  A
N368        H376   1.045       .  S
C369        C370   1.396       .  A
C370        H374   1.082       .  S
C377        N383   1.342       .  A
C377        C382   1.385       .  A
C377        C378   1.403       .  A
C378        C379   1.401       .  A
C378        H389   1.082       .  S
C379        C388   1.377       .  A
C379        C380   1.385       .  A
C380        N386   1.343       .  A
C380        C381   1.403       .  A
C381        C382   1.402       .  A
C381        H390   1.082       .  S
C382        C385   1.378       .  A
N383        C384   1.355       .  A
N383        H393   1.045       .  S
C384        C385   1.395       .  A
C385        H391   1.082   1_655  S
N386        C387   1.356       .  A
N386        H394   1.045       .  S
C387        C388   1.395       .  A
C388        H392   1.083       .  S
C395        N401   1.342       .  A
C395        C400   1.385   1_455  A
C395        C396   1.403       .  A
C396        C397   1.402       .  A
C396        H407   1.082       .  S
C397        C406   1.378       .  A
C397        C398   1.384   1_455  A
C398        N404   1.343       .  A
C398        C399   1.404       .  A
C399        C400   1.402       .  A
C399        H408   1.082       .  S
C400        C403   1.379       .  A
N401        C402   1.355       .  A
N401        H411   1.045       .  S
C402        C403   1.395   1_455  A
C403        H409   1.082       .  S
N404        C405   1.356       .  A
N404        H412   1.045       .  S
C405        C406   1.395   1_655  A
C406        H410   1.082       .  S
C413        N419   1.342       .  A
C413        C418   1.385       .  A
C413        C414   1.402       .  A
C414        C415   1.401       .  A
C414        H425   1.082       .  S
C415        C424   1.377       .  A
C415        C416   1.385       .  A
C416        N422   1.344       .  A
C416        C417   1.405       .  A
C417        C418   1.404       .  A
C417        H426   1.082       .  S
C418        C421   1.380       .  A
N419        C420   1.354       .  A
N419        H429   1.045       .  S
C420        C421   1.395       .  A
C421        H427   1.082       .  S
N422        C423   1.356       .  A
N422        H430   1.045       .  S
C423        C424   1.393       .  A
C424        H428   1.082       .  S
C431        N437   1.342       .  A
C431        C436   1.385       .  A
C431        C432   1.401       .  A
C432        C433   1.400       .  A
C432        H443   1.082       .  S
C433        C442   1.375       .  A
C433        C434   1.385       .  A
C434        N440   1.344       .  A
C434        C435   1.404       .  A
C435        C436   1.404       .  A
C435        H444   1.082       .  S
C436        C439   1.379       .  A
N437        C438   1.354       .  A
N437        H447   1.045       .  S
C438        C439   1.395       .  A
C439        H445   1.082       .  S
N440        C441   1.356       .  A
N440        H448   1.045       .  S
C441        C442   1.392       .  A
C442        H446   1.082       .  S
C449        N455   1.344       .  A
C449        C454   1.385       .  A
C449        C450   1.402       .  A
C450        C451   1.402       .  A
C450        H461   1.082       .  S
C451        C460   1.376       .  A
C451        C452   1.385       .  A
C452        N458   1.344       .  A
C452        C453   1.403       .  A
C453        C454   1.403       .  A
C453        H462   1.082       .  S
C454        C457   1.377       .  A
N455        C456   1.355       .  A
N455        H465   1.045       .  S
C456        C457   1.395       .  A
C457        H463   1.082       .  S
N458        C459   1.356       .  A
N458        H466   1.045       .  S
C459        C460   1.395       .  A
C460        H464   1.082       .  S
C467        N473   1.342       .  A
C467        C472   1.385       .  A
C467        C468   1.403       .  A
C468        C469   1.402       .  A
C468        H479   1.082       .  S
C469        C478   1.378       .  A
C469        C470   1.384       .  A
C470        N476   1.342       .  A
C470        C471   1.403       .  A
C471        C472   1.402       .  A
C471        H480   1.082       .  S
C472        C475   1.379       .  A
N473        C474   1.355       .  A
N473        H483   1.045       .  S
C474        C475   1.395       .  A
C475        H481   1.082       .  S
N476        C477   1.356       .  A
N476        H484   1.045       .  S
C477        C478   1.395       .  A
C478        H482   1.082       .  S
C485        N491   1.344       .  A
C485        C490   1.385   1_455  A
C485        C486   1.403       .  A
C486        C487   1.403       .  A
C486        H497   1.082       .  S
C487        C496   1.377       .  A
C487        C488   1.385   1_455  A
C488        N494   1.343       .  A
C488        C489   1.402       .  A
C489        C490   1.402       .  A
C489        H498   1.082       .  S
C490        C493   1.375       .  A
N491        C492   1.356       .  A
N491        H501   1.045       .  S
C492        C493   1.395   1_455  A
C493        H499   1.083       .  S
N494        C495   1.355       .  A
N494        H502   1.045       .  S
C495        C496   1.395   1_655  A
C496        H500   1.082       .  S
C503        N509   1.344       .  A
C503        C508   1.385   1_455  A
C503        C504   1.402       .  A
C504        C505   1.402       .  A
C504        H515   1.082       .  S
C505        C514   1.375       .  A
C505        C506   1.385   1_455  A
C506        N512   1.345       .  A
C506        C507   1.404       .  A
C507        C508   1.404       .  A
C507        H516   1.082       .  S
C508        C511   1.377       .  A
N509        C510   1.355       .  A
N509        H519   1.045       .  S
C510        C511   1.396   1_455  A
C511        H517   1.082       .  S
N512        C513   1.356       .  A
N512        H520   1.045       .  S
C513        C514   1.395   1_655  A
C514        H518   1.083       .  S
C521        N527   1.342       .  A
C521        C526   1.385       .  A
C521        C522   1.402       .  A
C522        C523   1.401       .  A
C522        H533   1.082       .  S
C523        C532   1.376       .  A
C523        C524   1.385       .  A
C524        N530   1.343       .  A
C524        C525   1.403       .  A
C525        C526   1.402       .  A
C525        H534   1.082       .  S
C526        C529   1.378       .  A
N527        C528   1.354       .  A
N527        H537   1.045       .  S
C528        C529   1.394       .  A
C529        H535   1.082       .  S
N530        C531   1.355       .  A
N530        H538   1.045       .  S
C531        C532   1.393       .  A
C532        H536   1.082       .  S
C539        N545   1.342       .  A
C539        C544   1.385       .  A
C539        C540   1.403       .  A
C540        C541   1.402       .  A
C540        H551   1.082       .  S
C541        C550   1.379       .  A
C541        C542   1.385       .  A
C542        N548   1.343       .  A
C542        C543   1.404       .  A
C543        C544   1.402       .  A
C543        H552   1.082       .  S
C544        C547   1.379       .  A
N545        C546   1.355       .  A
N545        H555   1.045       .  S
C546        C547   1.394       .  A
C547        H553   1.082       .  S
N548        C549   1.355       .  A
N548        H556   1.045       .  S
C549        C550   1.394       .  A
C550        H554   1.082       .  S
C557        N563   1.341       .  A
C557        C562   1.385       .  A
C557        C558   1.402       .  A
C558        C559   1.401       .  A
C558        H569   1.082       .  S
C559        C568   1.377       .  A
C559        C560   1.384       .  A
C560        N566   1.343       .  A
C560        C561   1.404       .  A
C561        C562   1.403       .  A
C561        H570   1.082       .  S
C562        C565   1.380       .  A
N563        C564   1.355       .  A
N563        H573   1.045       .  S
C564        C565   1.396       .  A
C565        H571   1.082       .  S
N566        C567   1.356       .  A
N566        H574   1.045       .  S
C567        C568   1.394       .  A
C568        H572   1.082       .  S
C575        N581   1.343       .  A
C575        C580   1.385       .  A
C575        C576   1.402       .  A
C576        C577   1.401       .  A
C576        H587   1.082       .  S
C577        C586   1.375       .  A
C577        C578   1.385       .  A
C578        N584   1.344       .  A
C578        C579   1.404       .  A
C579        C580   1.404       .  A
C579        H588   1.082       .  S
C580        C583   1.378       .  A
N581        C582   1.355       .  A
N581        H591   1.045       .  S
C582        C583   1.396       .  A
C583        H589   1.082       .  S
N584        C585   1.356       .  A
N584        H592   1.045       .  S
C585        C586   1.395       .  A
C586        H590   1.083       .  S
