geometry optimzed in LAMMPS
_audit_creation_date              2020-12-01 
_audit_creation_method            'lammps2cif' 
_symmetry_space_group_name_H-M    'P1' 
_symmetry_Int_Tables_number       1 
_symmetry_cell_setting            triclinic 
loop_ 
_symmetry_equiv_pos_as_xyz 
  x,y,z 
_cell_length_a                    41.38984252 
_cell_length_b                    41.667986050997385 
_cell_length_c                    40.567828216526195 
_cell_angle_alpha                 88.81183078582991 
_cell_angle_beta                  90.88880531910425 
_cell_angle_gamma                 67.05767543910021 
loop_ 
_atom_site_label 
_atom_site_type_symbol 
_atom_site_fract_x 
_atom_site_fract_y 
_atom_site_fract_z 
_atom_site_charge 
O1          O  0.09487082  0.45904173  0.06609585    -0.75300
O2          O  0.08925598  0.01348726  0.04228525    -0.54200
C3          C  0.10644885  0.48284554  0.05905150     0.78400
O4          O  0.02833257  0.40413314  0.43249831    -0.59900
O5          O  0.48245675  0.40458424  0.46319418    -0.52900
C6          C  0.50546097  0.39299812  0.44075844     0.70400
O7          O  0.09578431  0.46740679  0.43629346    -0.74500
O8          O  0.08739969  0.01955556  0.46539774    -0.55000
C9          C  0.10657048  0.49173040  0.44301382     0.76500
O10         O  0.02304039  0.40033734  0.06468282    -0.59600
O11         O  0.48658462  0.40197623  0.03371880    -0.52700
C12         C  0.51124470  0.38684257  0.05523324     0.73000
Zr13       Zr  0.04477877  0.44532774  0.04954882     2.54700
O14         O  0.09683567  0.39134509  0.04965792    -0.80200
O15         O  0.04168924  0.44520150  0.10948395    -0.93600
Zr16       Zr  0.04875540  0.44889496  0.45133454     2.64700
O17         O  0.10135320  0.39550355  0.45727413    -0.98500
O18         O  0.05194631  0.44871634  0.39146557    -0.80600
O19         O  0.06509014  0.46448108  0.00175469    -0.84000
O20         O  0.02673488  0.42825408  0.99934458    -2.18700
O21         O  0.41413329  0.01558632  0.06271710    -0.67300
O22         O  0.42084778  0.46379188  0.03524696    -0.51900
C23         C  0.40289864  0.99191982  0.05490413     0.71400
O24         O  0.47518495  0.09021941  0.43606869    -0.60300
O25         O  0.02458283  0.08222310  0.46573894    -0.52200
C26         C  0.99997172  0.09705048  0.44400049     0.73200
O27         O  0.40857628  0.02843143  0.43130680    -0.71600
O28         O  0.41828395  0.46577697  0.46201263    -0.50300
C29         C  0.39719926  0.00441860  0.43752733     0.74600
O30         O  0.48109956  0.07761395  0.06582998    -0.67000
O31         O  0.02305534  0.07828173  0.03995666    -0.54200
C32         C  0.99741338  0.09232655  0.05952524     0.73000
Zr33       Zr  0.46207051  0.03236032  0.04746272     2.77500
O34         O  0.40991698  0.08641417  0.04478537    -0.97700
O35         O  0.46306772  0.02823488  0.10741534    -0.78500
Zr36       Zr  0.45727157  0.04263330  0.44974299     2.70100
O37         O  0.40471438  0.09618719  0.44760234    -0.79800
O38         O  0.46592440  0.04099343  0.39047663    -0.98900
Zr39       Zr  0.03976424  0.02870733  0.00411325     2.21500
Zr40       Zr  0.46754015  0.45307519  0.50015179     2.11100
O41         O  0.43789088  0.02187172  0.49728038    -2.47600
O42         O  0.47546717  0.05892352  0.50022508    -0.79600
O43         O  0.48767920  0.47071362  0.05058122    -0.71800
O44         O  0.01977588  0.01494115  0.45175412    -2.32700
O45         O  0.02024988  0.00888249  0.05257885    -2.28900
O46         O  0.48413646  0.47375650  0.45083558    -0.73500
H47         H  0.03448204  0.40317034  0.99911262     0.78500
H48         H  0.02742019  0.02432295  0.43284376     0.79500
H49         H  0.41256124  0.03071984  0.49706647     0.81800
H50         H  0.02783939  0.01706666  0.07218007     0.79400
H51         H  0.02726064  0.45646895  0.38354619     0.42400
H52         H  0.46810240  0.01740509  0.38428087     0.41400
H53         H  0.40455200  0.10652826  0.46938927     0.41100
H54         H  0.41744963  0.10345607  0.03333773     0.39000
H55         H  0.48098157  0.00471396  0.11296802     0.42100
H56         H  0.03868720  0.46904674  0.11562812     0.36900
H57         H  0.09982246  0.38248001  0.07280852     0.43000
H58         H  0.09308272  0.37772117  0.46593360     0.39400
H59         H  0.39389561  0.08217895  0.02868488     0.44400
H60         H  0.06575318  0.43027501  0.11736570     0.43100
H61         H  0.10801328  0.38864916  0.43434472     0.43200
H62         H  0.44316124  0.05698156  0.38065722     0.43600
C63         C  0.99081759  0.27355351  0.12753933     0.80200
N64         N  0.99219855  0.27204173  0.16099703    -0.78100
C65         C  0.99468675  0.24255691  0.17774105     0.82700
N66         N  0.99580938  0.21443599  0.16064147    -0.78000
C67         C  0.99474827  0.21542120  0.12702511     0.82800
N68         N  0.99203893  0.24521409  0.11089555    -0.79700
C69         C  0.99976222  0.27529832  0.36935955     0.80200
N70         N  0.99682498  0.27553628  0.33590012    -0.78100
C71         C  0.99424051  0.24791287  0.32047126     0.82700
N72         N  0.99458774  0.22007406  0.33881080    -0.78000
C73         C  0.99655099  0.22002864  0.37233278     0.82800
N74         N  0.99945659  0.24761108  0.38738474    -0.79700
C75         C  0.28746565  0.48080155  0.12509608     0.80200
N76         N  0.28826171  0.48074278  0.15856455    -0.78100
C77         C  0.26065214  0.47992893  0.17562932     0.82700
N78         N  0.23215715  0.47932158  0.15917328    -0.78000
C79         C  0.23163186  0.47838287  0.12581019     0.82800
N80         N  0.25916461  0.47945872  0.10883026    -0.79700
C81         C  0.28328241  0.48590038  0.36769392     0.80200
N82         N  0.25393153  0.48799146  0.38341602    -0.78100
C83         C  0.22484294  0.48983248  0.36622273     0.82700
N84         N  0.22500589  0.49069423  0.33277333    -0.78000
C85         C  0.25404096  0.48916244  0.31670622     0.82800
N86         N  0.28317813  0.48640220  0.33423484    -0.79700
C87         C  0.23364081  0.51049281  0.22543694    -0.05800
C88         C  0.26032592  0.48198557  0.21172150     0.00100
C89         C  0.28498781  0.45592701  0.23244489    -0.08400
C90         C  0.28195365  0.45941574  0.26673935    -0.05800
C91         C  0.25511621  0.48783428  0.28050999     0.00100
C92         C  0.23085494  0.51423508  0.25971699    -0.08300
C93         C  0.20330675  0.54691020  0.27349695     0.62000
H94         H  0.21516902  0.53006928  0.20892196     0.12700
H95         H  0.30038372  0.43973017  0.28318996     0.12700
C96         C  0.31358198  0.42414995  0.21844326     0.62300
F97         F  0.17801181  0.07364115  0.24794578    -0.22900
F98         F  0.20980131  0.06930183  0.29420101    -0.20200
F99         F  0.17916782  0.53853896  0.29100617    -0.19900
F100        F  0.33686114  0.43420124  0.20131380    -0.19900
F101        F  0.29879599  0.40765930  0.19735922    -0.20300
F102        F  0.33235513  0.40027714  0.24298979    -0.22900
C103        C  0.01889744  0.21855377  0.26879261    -0.05800
C104        C  0.99324193  0.24693850  0.28390589     0.00100
C105        C  0.48323586  0.27647149  0.26260172    -0.08400
C106        C  0.48419266  0.27196560  0.22824763    -0.05800
C107        C  0.99461678  0.24208756  0.21433638     0.00100
C108        C  0.02027204  0.21570606  0.23421279    -0.08300
C109        C  0.04967680  0.18537562  0.21913302     0.62000
H110        H  0.03828482  0.19875945  0.28443442     0.12700
H111        H  0.47089426  0.29423860  0.21183623     0.12700
C112        C  0.46342054  0.31261816  0.27579396     0.62300
F113        F  0.07419875  0.16539913  0.24273001    -0.22900
F114        F  0.06689142  0.19776077  0.19636557    -0.20200
F115        F  0.03606275  0.16395451  0.20369654    -0.19900
F116        F  0.48698114  0.32508583  0.28931665    -0.19900
F117        F  0.44029276  0.31135239  0.29954430    -0.20300
F118        F  0.44414124  0.33613086  0.25118543    -0.22900
C119        C  0.47628578  0.16281927  0.43341630    -0.05800
C120        C  0.00010847  0.12814511  0.42591810     0.00100
C121        C  0.02079194  0.12540512  0.39785484    -0.08400
C122        C  0.01877255  0.15610379  0.38119241    -0.05800
C123        C  0.99722714  0.18925589  0.39198344     0.00100
C124        C  0.47392345  0.19311150  0.41581853    -0.08300
C125        C  0.44482890  0.22777446  0.42339825     0.62000
H126        H  0.45833551  0.16440313  0.45306353     0.12700
H127        H  0.03438487  0.15445455  0.35962446     0.12700
C128        C  0.04476317  0.09015482  0.38555838     0.62300
F129        F  0.42064863  0.22355129  0.44443483    -0.22900
F130        F  0.42708917  0.24382725  0.39454988    -0.20200
F131        F  0.45883249  0.24915279  0.43830416    -0.19900
F132        F  0.02529465  0.07075587  0.37781377    -0.19900
F133        F  0.06947080  0.07262012  0.40982703    -0.20300
F134        F  0.06237820  0.09321895  0.35769152    -0.22900
C135        C  0.03242370  0.33393146  0.41875452    -0.05800
C136        C  0.00165732  0.36429822  0.42024098     0.00100
C137        C  0.48258307  0.36764105  0.39451914    -0.08400
C138        C  0.48379855  0.33809420  0.37766734    -0.05800
C139        C  0.00181498  0.30557104  0.38626284     0.00100
C140        C  0.03286802  0.30416889  0.40252617    -0.08300
C141        C  0.06618850  0.27130097  0.40282619     0.62000
H142        H  0.05591754  0.33334933  0.43136554     0.12700
H143        H  0.46615915  0.34103622  0.35677718     0.12700
C144        C  0.45655162  0.40354069  0.38375749     0.62300
F145        F  0.09426091  0.27639508  0.41732634    -0.22900
F146        F  0.07489637  0.26086004  0.37088780    -0.20200
F147        F  0.06104256  0.24499778  0.42044605    -0.19900
F148        F  0.47417991  0.42497421  0.37683564    -0.19900
F149        F  0.42990028  0.40530362  0.92638551    -0.20300
F150        F  0.43719985  0.40264524  0.35591677    -0.22900
C151        C  0.49172111  0.15838443  0.12392890    -0.05800
C152        C  0.99572666  0.18435460  0.10848189     0.00100
C153        C  0.00703757  0.17764455  0.07532775    -0.08400
C154        C  0.00678871  0.14746860  0.06050425    -0.05800
C155        C  0.99601695  0.12372083  0.07728139     0.00100
C156        C  0.49163341  0.12781750  0.10992319    -0.08300
C157        C  0.47614678  0.10596016  0.12953059     0.62000
H158        H  0.47799930  0.16722312  0.14660725     0.12700
H159        H  0.01476032  0.14227532  0.03520753     0.12700
C160        C  0.02023520  0.20122925  0.05544358     0.62300
F161        F  0.46992020  0.11654968  0.16178826    -0.22900
F162        F  0.49939489  0.07143879  0.13071121    -0.20200
F163        F  0.44456722  0.10884009  0.11520870    -0.19900
F164        F  0.04655915  0.20638815  0.07312702    -0.19900
F165        F  0.99286431  0.23282607  0.04822533    -0.20300
F166        F  0.03409423  0.18695324  0.02576659    -0.22900
C167        C  0.52569134  0.34769922  0.10469663    -0.05800
C168        C  0.99583130  0.36060310  0.07242616     0.00100
C169        C  0.01491812  0.32622915  0.06260664    -0.08400
C170        C  0.01247707  0.29863410  0.08138465    -0.05800
C171        C  0.99092029  0.30454346  0.10897417     0.00100
C172        C  0.52671111  0.31858159  0.12346951    -0.08300
C173        C  0.54323796  0.31271684  0.15802829     0.62000
H174        H  0.53462605  0.36624765  0.11588013     0.12700
H175        H  0.02780481  0.27211066  0.07476091     0.12700
C176        C  0.03720099  0.31903315  0.03210619     0.62300
F177        F  0.56062131  0.33455364  0.16397181    -0.22900
F178        F  0.56756018  0.27877232  0.16197901    -0.20200
F179        F  0.51757164  0.31931566  0.18131555    -0.19900
F180        F  0.06213260  0.33332135  0.03510729    -0.19900
F181        F  0.01595582  0.33379461  0.00463161    -0.20300
F182        F  0.05446525  0.28366366  0.02724214    -0.22900
C183        C  0.35447685  0.47021989  0.43413697    -0.05800
C184        C  0.37407807  0.48762300  0.41977195     0.00100
C185        C  0.36521557  0.50167141  0.38704674    -0.08400
C186        C  0.33500927  0.50098922  0.37158010    -0.05800
C187        C  0.31470002  0.48482883  0.38643190     0.00100
C188        C  0.32545575  0.46767939  0.41769681    -0.08300
C189        C  0.30754284  0.44569524  0.43334545     0.62000
H190        H  0.36190396  0.45865423  0.45866734     0.12700
H191        H  0.32688846  0.51345217  0.34746295     0.12700
C192        C  0.38012447  0.02907490  0.36561806     0.62300
F193        F  0.32688090  0.42574372  0.45999015    -0.22900
F194        F  0.30374386  0.42309897  0.41051823    -0.20200
F195        F  0.27498366  0.46696661  0.44449009    -0.19900
F196        F  0.41411985  0.00433904  0.36731597    -0.19900
F197        F  0.37544159  0.55898817  0.88786885    -0.20300
F198        F  0.36688512  0.53789096  0.83981233    -0.22900
C199        C  0.14358042  0.47545493  0.39363102    -0.05800
C200        C  0.13700565  0.49242617  0.42401285     0.00100
C201        C  0.15968941  0.50862099  0.43496275    -0.08400
C202        C  0.18720856  0.50781945  0.41463646    -0.05800
C203        C  0.19359153  0.49089857  0.38439998     0.00100
C204        C  0.17169842  0.47387003  0.37381118    -0.08300
C205        C  0.17826080  0.45309831  0.34241256     0.62000
H206        H  0.12623171  0.46332461  0.38519017     0.12700
H207        H  0.20424307  0.52061418  0.42234041     0.12700
C208        C  0.14668288  0.03641759  0.46730960     0.62300
F209        F  0.15719692  0.43430577  0.33984587    -0.22900
F210        F  0.21281807  0.42955587  0.34208595    -0.20200
F211        F  0.16830879  0.97813488  0.31676017    -0.19900
F212        F  0.15879856  0.49024289  0.99874803    -0.19900
F213        F  0.11456930  0.06429681  0.46720816    -0.20300
F214        F  0.17226870  0.04947880  0.47301439    -0.22900
C215        C  0.35102212  0.45807197  0.11564154    -0.05800
C216        C  0.31730528  0.48230111  0.10671486     0.00100
C217        C  0.31307711  0.50827265  0.08196229    -0.08400
C218        C  0.34302701  0.50810979  0.06597405    -0.05800
C219        C  0.37656232  0.48352983  0.07460716     0.00100
C220        C  0.38096519  0.45848062  0.10012410    -0.08300
C221        C  0.41723775  0.43318398  0.11146845     0.62000
H222        H  0.35370443  0.43889959  0.13505842     0.12700
H223        H  0.34059053  0.52742036  0.04674974     0.12700
C224        C  0.27752064  0.53705213  0.07364409     0.62300
F225        F  0.43910243  0.42531093  0.60201887    -0.22900
F226        F  0.41420910  0.40595677  0.56125572    -0.20200
F227        F  0.31709908  0.96747509  0.01209854    -0.19900
F228        F  0.26213108  0.55300092  0.10220967    -0.19900
F229        F  0.25593021  0.52333981  0.05825725    -0.20300
F230        F  0.28038109  0.56243251  0.05270987    -0.22900
C231        C  0.16610137  0.00524880  0.12252266    -0.05800
C232        C  0.20027363  0.47843577  0.10828362     0.00100
C233        C  0.20140169  0.45133705  0.08725250    -0.08400
C234        C  0.16994886  0.45325111  0.07191373    -0.05800
C235        C  0.13817790  0.48155423  0.07674244     0.00100
C236        C  0.13442481  0.00757502  0.10755151    -0.08300
C237        C  0.09955820  0.03179049  0.12088957     0.62000
H238        H  0.16559819  0.02129117  0.14333815     0.12700
H239        H  0.16996147  0.43298621  0.05560463     0.12700
C240        C  0.23536110  0.42011542  0.08202845     0.62300
F241        F  0.10397575  0.04950051  0.14796176    -0.22900
F242        F  0.08034116  0.01263172  0.13043117    -0.20200
F243        F  0.08079684  0.05614913  0.09677491    -0.19900
F244        F  0.24938036  0.40424011  0.11216890    -0.19900
F245        F  0.25925743  0.43067989  0.06660383    -0.20300
F246        F  0.23011831  0.39559940  0.06255365    -0.22900
O247        O  0.09551187  0.46483763  0.56603731    -0.75300
O248        O  0.09026743  0.01565413  0.53782180    -0.54200
C249        C  0.10654837  0.48906221  0.55910366     0.78400
O250        O  0.02586243  0.40417304  0.93243898    -0.59900
O251        O  0.48383626  0.40749571  0.96144168    -0.52900
C252        C  0.50795674  0.39481540  0.94023608     0.70400
O253        O  0.09516646  0.46441446  0.93950675    -0.74500
O254        O  0.09041496  0.01686472  0.96970481    -0.55000
C255        C  0.10679353  0.48791032  0.94698058     0.76500
O256        O  0.02993128  0.40033003  0.56393629    -0.59600
O257        O  0.48427589  0.40181930  0.53654923    -0.52700
C258        C  0.50912315  0.38752368  0.55818075     0.73000
Zr259      Zr  0.04774120  0.44789812  0.54912946     2.54700
O260        O  0.10127342  0.39536473  0.55350075    -0.80200
O261        O  0.04259019  0.45052020  0.60881993    -0.93600
Zr262      Zr  0.04571842  0.44880956  0.95159031     2.64700
O263        O  0.09784403  0.39476028  0.95252562    -0.98500
O264        O  0.04481568  0.45447820  0.89172298    -0.80600
O265        O  0.06795716  0.46634602  0.50077666    -0.84000
O266        O  0.03003304  0.42923285  0.49967378    -2.18700
O267        O  0.41377832  0.01419727  0.56447854    -0.67300
O268        O  0.41888204  0.46283325  0.53611708    -0.51900
C269        C  0.40216351  0.99113074  0.55534061     0.71400
O270        O  0.48305574  0.08286338  0.93577573    -0.60300
O271        O  0.02663954  0.07927034  0.96713358    -0.52200
C272        C  0.00278031  0.09382288  0.94463270     0.73200
O273        O  0.41609467  0.01831753  0.93012983    -0.71600
O274        O  0.42028940  0.46878003  0.96188583    -0.50300
C275        C  0.40424442  0.99459718  0.93670843     0.74600
O276        O  0.47676495  0.08177037  0.56648216    -0.67000
O277        O  0.02630087  0.07920232  0.53888714    -0.54200
C278        C  0.00323054  0.09186374  0.56112127     0.73000
Zr279      Zr  0.45804398  0.03605933  0.54765624     2.77500
O280        O  0.40331169  0.08744415  0.54433783    -0.97700
O281        O  0.45773277  0.03339883  0.60757725    -0.78500
Zr282      Zr  0.46300851  0.03601957  0.94937618     2.70100
O283        O  0.40988157  0.08903942  0.94745563    -0.79800
O284        O  0.46994666  0.03646672  0.88993933    -0.98900
Zr285      Zr  0.03909900  0.03101840  0.50191967     2.21500
Zr286      Zr  0.46986580  0.45459093  0.99965968     2.11100
O287        O  0.44223090  0.01721539  0.99725650    -2.47600
O288        O  0.48105657  0.05298570  0.99963596    -0.79600
O289        O  0.48483715  0.47143274  0.55020571    -0.71800
O290        O  0.02379987  0.01030770  0.95349984    -2.32700
O291        O  0.02387283  0.00882954  0.55125598    -2.28900
O292        O  0.48640600  0.47645283  0.95099544    -0.73500
H293        H  0.03828676  0.40410676  0.49982111     0.78500
H294        H  0.03258491  0.01907910  0.93495499     0.79500
H295        H  0.41689732  0.02626105  0.99639587     0.81800
H296        H  0.03289259  0.01610491  0.57057796     0.79400
H297        H  0.06624986  0.43490716  0.88495640     0.42400
H298        H  0.47292434  0.01277196  0.88329305     0.41400
H299        H  0.41272738  0.10249741  0.96631842     0.41100
H300        H  0.39578848  0.09150965  0.56746407     0.39000
H301        H  0.47797195  0.01164842  0.61386281     0.42100
H302        H  0.04174873  0.47386074  0.61433880     0.36900
H303        H  0.10417368  0.38574059  0.53113010     0.43000
H304        H  0.09153472  0.37810584  0.96604066     0.39400
H305        H  0.41031049  0.10695728  0.53842369     0.44400
H306        H  0.06576962  0.43411587  0.61751046     0.43100
H307        H  0.09921561  0.38619460  0.92979494     0.43200
H308        H  0.44658876  0.05198181  0.88089086     0.43600
C309        C  0.00644268  0.26977367  0.63034231     0.80200
N310        N  0.00693077  0.26810302  0.66377548    -0.78100
C311        C  0.00719497  0.23935594  0.68025887     0.82700
N312        N  0.00717615  0.21181576  0.66296918    -0.78000
C313        C  0.00730617  0.21260272  0.62940256     0.82800
N314        N  0.00656396  0.24188119  0.61338903    -0.79700
C315        C  0.00107769  0.27307565  0.87187109     0.80200
N316        N  0.00045778  0.27280685  0.83842625    -0.78100
C317        C  0.99991033  0.24467403  0.82251006     0.82700
N318        N  0.00028332  0.21654895  0.84036222    -0.78000
C319        C  0.00015859  0.21685974  0.87388739     0.82800
N320        N  0.00080358  0.24513668  0.88948393    -0.79700
C321        C  0.28744759  0.48098361  0.62972370     0.80200
N322        N  0.28853178  0.48010814  0.66321571    -0.78100
C323        C  0.26084042  0.47932387  0.68025530     0.82700
N324        N  0.23195111  0.47979663  0.66362065    -0.78000
C325        C  0.23112956  0.47997635  0.63021043     0.82800
N326        N  0.25876242  0.48081706  0.61328238    -0.79700
C327        C  0.28405416  0.48500176  0.87227677     0.80200
N328        N  0.25573390  0.48495852  0.88867477    -0.78100
C329        C  0.22717859  0.48434213  0.87211192     0.82700
N330        N  0.22684646  0.48486941  0.83861446    -0.78000
C331        C  0.25485291  0.48529855  0.82191836     0.82800
N332        N  0.28341536  0.48509529  0.83883952    -0.79700
C333        C  0.23269451  0.50737161  0.73088446    -0.05800
C334        C  0.26069072  0.48052354  0.71655629     0.00100
C335        C  0.28670722  0.45523273  0.73692984    -0.08400
C336        C  0.28351647  0.45769160  0.77132427    -0.05800
C337        C  0.25534820  0.48436105  0.78563078     0.00100
C338        C  0.22977562  0.51008642  0.76527502    -0.08300
C339        C  0.20037067  0.54091661  0.77967640     0.62000
H340        H  0.21317536  0.52646640  0.71477238     0.12700
H341        H  0.30299008  0.43859697  0.78746819     0.12700
C342        C  0.31699779  0.42522183  0.72253725     0.62300
F343        F  0.17292423  0.07393439  0.75064322    -0.22900
F344        F  0.20591611  0.07031475  0.79590641    -0.20200
F345        F  0.17716252  0.52967453  0.79543624    -0.19900
F346        F  0.33842751  0.43785279  0.70548621    -0.19900
F347        F  0.30412744  0.40717854  0.70133490    -0.20300
F348        F  0.33737873  0.40196047  0.74680526    -0.22900
C349        C  0.02672257  0.21517747  0.77166002    -0.05800
C350        C  0.00069836  0.24382071  0.78604548     0.00100
C351        C  0.49044003  0.27023950  0.76891971    -0.08400
C352        C  0.49145966  0.26657782  0.73447719    -0.05800
C353        C  0.00547265  0.23926459  0.71670958     0.00100
C354        C  0.02965142  0.21240431  0.73719764    -0.08300
C355        C  0.05905703  0.18154680  0.72285287     0.62000
H356        H  0.04506836  0.19504458  0.78778332     0.12700
H357        H  0.47637124  0.28869506  0.71851545     0.12700
C358        C  0.46740952  0.30513215  0.78284317     0.62300
F359        F  0.08222046  0.16097789  0.74710077    -0.22900
F360        F  0.07783202  0.19324529  0.70116116    -0.20200
F361        F  0.04519530  0.16093096  0.70636391    -0.19900
F362        F  0.48821888  0.32079841  0.79645497    -0.19900
F363        F  0.44602202  0.30035719  0.80668088    -0.20300
F364        F  0.44594424  0.32776979  0.75873076    -0.22900
C365        C  0.49032811  0.15531639  0.93942743    -0.05800
C366        C  0.00309181  0.12495895  0.92678219     0.00100
C367        C  0.02581730  0.12230329  0.90035313    -0.08400
C368        C  0.02397065  0.15299994  0.88379220    -0.05800
C369        C  0.00045349  0.18603152  0.89306447     0.00100
C370        C  0.49104656  0.18611084  0.92507355    -0.08300
C371        C  0.46841862  0.22095399  0.93925940     0.62000
H372        H  0.47393086  0.15653455  0.96030926     0.12700
H373        H  0.04119258  0.15146395  0.86351929     0.12700
C374        C  0.05154245  0.08711320  0.88951246     0.62300
F375        F  0.44709055  0.21731449  0.96379312    -0.22900
F376        F  0.44700399  0.24278518  0.91469519    -0.20200
F377        F  0.48958322  0.23617494  0.95297560    -0.19900
F378        F  0.03348911  0.06686671  0.88006652    -0.19900
F379        F  0.07451058  0.07043935  0.91532709    -0.20300
F380        F  0.07108049  0.09022488  0.86314495    -0.22900
C381        C  0.02919427  0.33290638  0.92388679    -0.05800
C382        C  0.99974584  0.36437423  0.92011095     0.00100
C383        C  0.48047649  0.36445555  0.90198287    -0.08400
C384        C  0.48330192  0.33361589  0.88635841    -0.05800
C385        C  0.00155195  0.30386350  0.88885639     0.00100
C386        C  0.03056627  0.30240368  0.90865905    -0.08300
C387        C  0.06302627  0.26894129  0.91317575     0.62000
H388        H  0.05094052  0.33229243  0.93946883     0.12700
H389        H  0.46213255  0.33344450  0.87041488     0.12700
C390        C  0.44738252  0.39727083  0.89702188     0.62300
F391        F  0.08966891  0.27417316  0.93031678    -0.22900
F392        F  0.07551738  0.25605877  0.88270537    -0.20200
F393        F  0.05479121  0.24442890  0.93064391    -0.19900
F394        F  0.45590001  0.42478472  0.88668258    -0.19900
F395        F  0.43354516  0.41735298  0.40888563    -0.20300
F396        F  0.42468676  0.39317295  0.87362805    -0.22900
C397        C  0.48991018  0.16154546  0.62645289    -0.05800
C398        C  0.00681841  0.18204049  0.61090694     0.00100
C399        C  0.02148318  0.17274195  0.57928972    -0.08400
C400        C  0.01945910  0.14335293  0.56426456    -0.05800
C401        C  0.00384132  0.12251533  0.57951948     0.00100
C402        C  0.48611578  0.13338025  0.61060871    -0.08300
C403        C  0.46458400  0.11558439  0.62721779     0.62000
H404        H  0.47659746  0.17062873  0.64927526     0.12700
H405        H  0.02980038  0.13671490  0.53986873     0.12700
C406        C  0.03957768  0.19313991  0.56118359     0.62300
F407        F  0.45365663  0.12859224  0.65804940    -0.22900
F408        F  0.48465935  0.08033660  0.63148693    -0.20200
F409        F  0.43485083  0.12072717  0.60820737    -0.19900
F410        F  0.06431983  0.19769623  0.58179028    -0.19900
F411        F  0.01487722  0.22516058  0.55053662    -0.20300
F412        F  0.05682920  0.17610453  0.53372477    -0.22900
C413        C  0.52588298  0.34866682  0.60820303    -0.05800
C414        C  0.00547151  0.35890373  0.57351108     0.00100
C415        C  0.02235770  0.32491083  0.56176015    -0.08400
C416        C  0.02252709  0.29663874  0.58141229    -0.05800
C417        C  0.00614581  0.30139779  0.61216114     0.00100
C418        C  0.52867024  0.31907904  0.62735833    -0.08300
C419        C  0.54727184  0.31306548  0.66093935     0.62000
H420        H  0.53494877  0.36748717  0.61860269     0.12700
H421        H  0.03597480  0.27043143  0.57295508     0.12700
C422        C  0.04018848  0.31875388  0.52870557     0.62300
F423        F  0.56439423  0.33537156  0.66557698    -0.22900
F424        F  0.57226836  0.27933117  0.66381992    -0.20200
F425        F  0.52315250  0.31879202  0.68561496    -0.19900
F426        F  0.06634475  0.33163795  0.52877448    -0.19900
F427        F  0.01581103  0.33561767  0.50388593    -0.20300
F428        F  0.05523437  0.28365788  0.52177884    -0.22900
C429        C  0.35695478  0.47222609  0.93612341    -0.05800
C430        C  0.37428040  0.49192950  0.92165712     0.00100
C431        C  0.36215443  0.50843090  0.89019150    -0.08400
C432        C  0.33249351  0.50555058  0.87537055    -0.05800
C433        C  0.31500431  0.48635371  0.89021773     0.00100
C434        C  0.32807489  0.46844107  0.92072511    -0.08300
C435        C  0.31280219  0.44428092  0.93663472     0.62000
H436        H  0.36614853  0.45963054  0.96001446     0.12700
H437        H  0.32236094  0.51880440  0.85190528     0.12700
C438        C  0.37763346  0.03427535  0.87004422     0.62300
F439        F  0.33419371  0.42409552  0.96214693    -0.22900
F440        F  0.30925704  0.42181507  0.91353545    -0.20200
F441        F  0.28043353  0.46362058  0.94942907    -0.19900
F442        F  0.41210685  0.01237951  0.86499765    -0.19900
F443        F  0.38454734  0.54801693  0.37954600    -0.20300
F444        F  0.37820782  0.52101579  0.33438120    -0.22900
C445        C  0.14519442  0.47044144  0.89868831    -0.05800
C446        C  0.13850572  0.48707088  0.92920033     0.00100
C447        C  0.16251619  0.50099919  0.94156331    -0.08400
C448        C  0.19033212  0.50025057  0.92158724    -0.05800
C449        C  0.19650788  0.48420648  0.89083562     0.00100
C450        C  0.17440398  0.46748647  0.87988323    -0.08300
C451        C  0.18217471  0.44492207  0.84963337     0.62000
H452        H  0.12723334  0.45938421  0.88943671     0.12700
H453        H  0.20779685  0.51221944  0.93012037     0.12700
C454        C  0.15523870  0.02650513  0.97584718     0.62300
F455        F  0.16128299  0.42587602  0.84771260    -0.22900
F456        F  0.21676942  0.42140591  0.85105338    -0.20200
F457        F  0.16602241  0.98164452  0.82103662    -0.19900
F458        F  0.15514957  0.50322060  0.49303947    -0.19900
F459        F  0.12517434  0.05665086  0.97668203    -0.20300
F460        F  0.18354295  0.03498768  0.98384474    -0.22900
C461        C  0.34813939  0.45270334  0.61108132    -0.05800
C462        C  0.31704505  0.48262166  0.61125651     0.00100
C463        C  0.31466166  0.51328864  0.59390716    -0.08400
C464        C  0.34410239  0.51308120  0.57705231    -0.05800
C465        C  0.37502256  0.48296290  0.57616607     0.00100
C466        C  0.37722713  0.45208767  0.59323832    -0.08300
C467        C  0.41000925  0.41876259  0.59270683     0.62000
H468        H  0.34911498  0.42956839  0.62448804     0.12700
H469        H  0.34300996  0.53633718  0.56379193     0.12700
C470        C  0.28122222  0.54604598  0.59329805     0.62300
F471        F  0.43680375  0.45160042  0.12198801    -0.22900
F472        F  0.43389835  0.41252069  0.08568334    -0.20200
F473        F  0.38499949  0.89469862  0.57831756    -0.19900
F474        F  0.27114981  0.55556397  0.62517866    -0.19900
F475        F  0.25478656  0.53991889  0.57682385    -0.20300
F476        F  0.28556476  0.57376950  0.57739308    -0.22900
C477        C  0.16621023  0.01334024  0.61553671    -0.05800
C478        C  0.19948748  0.48157463  0.61236981     0.00100
C479        C  0.19726254  0.45182826  0.59822851    -0.08400
C480        C  0.16630316  0.45552770  0.58101306    -0.05800
C481        C  0.13805047  0.48798174  0.57737925     0.00100
C482        C  0.13532092  0.01599986  0.59877187    -0.08300
C483        C  0.10092452  0.04605980  0.60548118     0.62000
H484        H  0.16555875  0.03284453  0.63305842     0.12700
H485        H  0.16403343  0.43306433  0.56988061     0.12700
C486        C  0.22731636  0.41638813  0.60177149     0.62300
F487        F  0.10453093  0.06663217  0.63048186    -0.22900
F488        F  0.07605017  0.03331257  0.61473924    -0.20200
F489        F  0.08919577  0.06694701  0.57734668    -0.19900
F490        F  0.23457021  0.40721258  0.63484294    -0.19900
F491        F  0.25688549  0.41760708  0.58736563    -0.20300
F492        F  0.21943039  0.39068278  0.58676664    -0.22900
O493        O  0.09385665  0.96298362  0.06910620    -0.75300
O494        O  0.09225282  0.50815256  0.03808163    -0.54200
C495        C  0.10407238  0.98790469  0.06293170     0.78400
O496        O  0.02603656  0.90764182  0.43220422    -0.59900
O497        O  0.47502651  0.91309225  0.45648524    -0.52900
C498        C  0.49917433  0.89956955  0.43542274     0.70400
O499        O  0.09129286  0.97213750  0.43659474    -0.74500
O500        O  0.09214109  0.51550686  0.46401885    -0.55000
C501        C  0.10165500  0.99656994  0.44383514     0.76500
O502        O  0.02606040  0.90002398  0.06774475    -0.59600
O503        O  0.47659661  0.90505420  0.03265312    -0.52700
C504        C  0.49948118  0.89024272  0.05567681     0.73000
Zr505      Zr  0.04534654  0.94696011  0.05275439     2.54700
O506        O  0.09709261  0.89274820  0.05766726    -0.80200
O507        O  0.03911088  0.95177465  0.11226134    -0.93600
Zr508      Zr  0.04468175  0.95320353  0.45086957     2.64700
O509        O  0.09833011  0.90070409  0.45040822    -0.98500
O510        O  0.04171392  0.95980200  0.39099243    -0.80600
O511        O  0.06622906  0.96651057  0.00532431    -0.84000
O512        O  0.02987829  0.92785211  0.00250654    -2.18700
O513        O  0.41626860  0.51046723  0.06626644    -0.67300
O514        O  0.41711393  0.96860649  0.03343347    -0.51900
C515        C  0.40662963  0.48594040  0.05763755     0.71400
O516        O  0.47191898  0.58599982  0.43563792    -0.60300
O517        O  0.02841660  0.58007457  0.46504031    -0.52200
C518        C  0.00394782  0.59515409  0.44333351     0.73200
O519        O  0.41364277  0.51461943  0.43272108    -0.71600
O520        O  0.41165239  0.97879748  0.45832986    -0.50300
C521        C  0.40400614  0.48942399  0.43933916     0.74600
O522        O  0.47578712  0.58063543  0.06920101    -0.67000
O523        O  0.02801913  0.57505537  0.03922046    -0.54200
C524        C  0.00403963  0.58880471  0.06052022     0.73000
Zr525      Zr  0.46090720  0.53243267  0.05133868     2.77500
O526        O  0.40557658  0.58303892  0.05235949    -0.97700
O527        O  0.46545360  0.52577783  0.11117870    -0.78500
Zr528      Zr  0.45803662  0.53562069  0.45072792     2.70100
O529        O  0.40263157  0.58599906  0.44562441    -0.79800
O530        O  0.46905041  0.53245973  0.39187135    -0.98900
Zr531      Zr  0.04107089  0.52647034  0.00213468     2.21500
Zr532      Zr  0.46287578  0.95990813  0.49496506     2.11100
O533        O  0.43961207  0.51523907  0.49925809    -2.47600
O534        O  0.47414214  0.55530575  0.50028311    -0.79600
O535        O  0.48522270  0.97051383  0.04793290    -0.71800
O536        O  0.02475076  0.51089512  0.44977431    -2.32700
O537        O  0.02154523  0.50722812  0.05090874    -2.28900
O538        O  0.48059339  0.98094887  0.44654959    -0.73500
H539        H  0.03862927  0.90267507  0.00265121     0.78500
H540        H  0.03323711  0.51952171  0.43092937     0.79500
H541        H  0.41437976  0.52273135  0.49862520     0.81800
H542        H  0.03013840  0.51449274  0.07048866     0.79400
H543        H  0.05656601  0.93641693  0.38315852     0.42400
H544        H  0.47358595  0.50808308  0.38636532     0.41400
H545        H  0.40315926  0.60059744  0.46441315     0.41100
H546        H  0.38957045  0.57756560  0.03719501     0.39000
H547        H  0.47431656  0.50029180  0.11554631     0.42100
H548        H  0.04783287  0.96990400  0.11832848     0.36900
H549        H  0.11480736  0.89685014  0.04400961     0.43000
H550        H  0.09498721  0.88482833  0.46726602     0.39400
H551        H  0.39641707  0.58196953  0.07458277     0.44400
H552        H  0.05708941  0.92975632  0.12147375     0.43100
H553        H  0.09725633  0.88990484  0.42912728     0.43200
H554        H  0.44622889  0.54666079  0.38099494     0.43600
C555        C  0.99901510  0.76918581  0.13015387     0.80200
N556        N  0.99867986  0.76836610  0.16361504    -0.78100
C557        C  0.00114636  0.73901225  0.18063604     0.82700
N558        N  0.00392960  0.71024247  0.16367489    -0.78000
C559        C  0.00473803  0.71037134  0.13006548     0.82800
N560        N  0.00208386  0.74009475  0.11366428    -0.79700
C561        C  0.00118820  0.77567656  0.37232207     0.80200
N562        N  0.99853708  0.77568614  0.33885032    -0.78100
C563        C  0.99660536  0.74780145  0.32340946     0.82700
N564        N  0.99755285  0.71981102  0.34176727    -0.78000
C565        C  0.99947047  0.71975702  0.37523171     0.82800
N566        N  0.00147522  0.74771674  0.39031925    -0.79700
C567        C  0.28623296  0.98540511  0.12880564     0.80200
N568        N  0.28685588  0.98407535  0.16225261    -0.78100
C569        C  0.25949141  0.98234565  0.17896841     0.82700
N570        N  0.23119302  0.98184024  0.16210578    -0.78000
C571        C  0.23056439  0.98196661  0.12867410     0.82800
N572        N  0.25795417  0.98414515  0.11213750    -0.79700
C573        C  0.27409531  0.00096484  0.37064234     0.80200
N574        N  0.24504499  0.00104911  0.38551944    -0.78100
C575        C  0.21793257  0.99886679  0.36778162     0.82700
N576        N  0.21968055  0.99746441  0.33451371    -0.78000
C577        C  0.24843071  0.99766767  0.31918696     0.82800
N578        N  0.27564467  0.99897300  0.33728464    -0.79700
C579        C  0.22986353  0.01382939  0.22735677    -0.05800
C580        C  0.25819125  0.98579674  0.21495064     0.00100
C581        C  0.28378777  0.96211696  0.23682608    -0.08400
C582        C  0.27967107  0.96719754  0.27086577    -0.05800
C583        C  0.25096988  0.99484616  0.28323776     0.00100
C584        C  0.22598594  0.01913702  0.26134247    -0.08300
C585        C  0.19631210  0.05121486  0.27364761     0.62000
H586        H  0.21087541  0.03180001  0.21003957     0.12700
H587        H  0.29867065  0.94932103  0.28822956     0.12700
C588        C  0.31452253  0.93104975  0.22449139     0.62300
F589        F  0.18522293  0.57087894  0.24875328    -0.22900
F590        F  0.21932123  0.56265652  0.29411262    -0.20200
F591        F  0.17282515  0.04149517  0.29077367    -0.19900
F592        F  0.33703256  0.94232920  0.20762325    -0.19900
F593        F  0.30244827  0.91206276  0.20366814    -0.20300
F594        F  0.33351125  0.90900659  0.25015766    -0.22900
C595        C  0.02021378  0.71589716  0.27272815    -0.05800
C596        C  0.99643319  0.74624075  0.28685220     0.00100
C597        C  0.46923040  0.77436422  0.26644116    -0.08400
C598        C  0.47142333  0.77154140  0.23197054    -0.05800
C599        C  0.99956716  0.73939091  0.21735020     0.00100
C600        C  0.02232947  0.71187228  0.23831585    -0.08300
C601        C  0.04931557  0.67867957  0.22478117     0.62000
H602        H  0.03752919  0.69528009  0.28908022     0.12700
H603        H  0.45223970  0.79125211  0.21611291     0.12700
C604        C  0.43925381  0.80452467  0.28098311     0.62300
F605        F  0.07183690  0.65786214  0.24933394    -0.22900
F606        F  0.06942974  0.68679683  0.20172141    -0.20200
F607        F  0.03246368  0.65952577  0.21025821    -0.19900
F608        F  0.45214411  0.82666459  0.29608168    -0.19900
F609        F  0.42227401  0.79202122  0.30387990    -0.20300
F610        F  0.41470484  0.82371319  0.25704653    -0.22900
C611        C  0.47431329  0.66159697  0.43690799    -0.05800
C612        C  0.00391494  0.62664261  0.42642907     0.00100
C613        C  0.02278628  0.62462850  0.39736295    -0.08400
C614        C  0.02120014  0.65571429  0.38195363    -0.05800
C615        C  0.00103963  0.68851722  0.39455248     0.00100
C616        C  0.47336208  0.69262776  0.42140807    -0.08300
C617        C  0.44883562  0.72752997  0.43412246     0.62000
H618        H  0.45863579  0.66270450  0.45831856     0.12700
H619        H  0.03568028  0.65460947  0.35970301     0.12700
C620        C  0.04402393  0.58967348  0.38262382     0.62300
F621        F  0.42668141  0.72363984  0.45768674    -0.22900
F622        F  0.42817332  0.74803635  0.40842036    -0.20200
F623        F  0.46813939  0.74441250  0.44841052    -0.19900
F624        F  0.02227155  0.57249260  0.37533768    -0.19900
F625        F  0.06992228  0.56952371  0.40495497    -0.20300
F626        F  0.05996181  0.59336616  0.35385934    -0.22900
C627        C  0.02912383  0.83378935  0.42751711    -0.05800
C628        C  0.00174643  0.86623438  0.42109858     0.00100
C629        C  0.47466903  0.87172983  0.39225521    -0.08400
C630        C  0.47469650  0.84101275  0.37841727    -0.05800
C631        C  0.00282818  0.80630732  0.38905922     0.00100
C632        C  0.03021264  0.80355334  0.41186929    -0.08300
C633        C  0.06106864  0.76920807  0.41887829     0.62000
H634        H  0.04947347  0.83229775  0.44532818     0.12700
H635        H  0.45584131  0.84267222  0.35899162     0.12700
C636        C  0.44957748  0.90713530  0.37893293     0.62300
F637        F  0.08689607  0.77350212  0.43819391    -0.22900
F638        F  0.07590565  0.75497538  0.38953439    -0.20200
F639        F  0.04998322  0.74618492  0.43545311    -0.19900
F640        F  0.46849266  0.92627548  0.36840293    -0.19900
F641        F  0.42571650  0.91540006  0.91270553    -0.20300
F642        F  0.42940407  0.90428393  0.35249280    -0.22900
C643        C  0.48477126  0.66272165  0.12804314    -0.05800
C644        C  0.00656803  0.67876964  0.11172597     0.00100
C645        C  0.02060517  0.67055579  0.07965727    -0.08400
C646        C  0.01910159  0.64112389  0.06409810    -0.05800
C647        C  0.00505401  0.61901145  0.07943047     0.00100
C648        C  0.48379169  0.63284609  0.11328639    -0.08300
C649        C  0.46723236  0.61139917  0.13204471     0.62000
H650        H  0.47263722  0.67051609  0.15160310     0.12700
H651        H  0.02852204  0.63546072  0.03927199     0.12700
C652        C  0.03791622  0.69186534  0.06178537     0.62300
F653        F  0.45838839  0.62305096  0.16368233    -0.22900
F654        F  0.49064442  0.57701175  0.13478941    -0.20200
F655        F  0.43679274  0.61358395  0.11580397    -0.19900
F656        F  0.06217141  0.69700364  0.08259059    -0.19900
F657        F  0.01274369  0.72366123  0.05119982    -0.20300
F658        F  0.05558970  0.67522350  0.03433611    -0.22900
C659        C  0.47326201  0.86665066  0.09910001    -0.05800
C660        C  0.00152660  0.85784532  0.07514917     0.00100
C661        C  0.02255408  0.82356373  0.06618175    -0.08400
C662        C  0.02081109  0.79545474  0.08480155    -0.05800
C663        C  0.99830207  0.80065319  0.11158834     0.00100
C664        C  0.47045125  0.83910519  0.11787360    -0.08300
C665        C  0.44363453  0.84726739  0.14486808     0.62000
H666        H  0.45746163  0.89346144  0.10476887     0.12700
H667        H  0.03753224  0.76906235  0.07879944     0.12700
C668        C  0.04643645  0.81692582  0.03688763     0.62300
F669        F  0.42044408  0.88185496  0.14320395    -0.22900
F670        F  0.46054873  0.84085494  0.17539722    -0.20200
F671        F  0.42423224  0.82687641  0.14184443    -0.19900
F672        F  0.07083275  0.83154394  0.04197093    -0.19900
F673        F  0.02667820  0.83176375  0.00861907    -0.20300
F674        F  0.06434714  0.78164998  0.03195172    -0.22900
C675        C  0.34137124  0.99650770  0.43844837    -0.05800
C676        C  0.36462170  0.00654815  0.42031841     0.00100
C677        C  0.35667387  0.01705664  0.38669015    -0.08400
C678        C  0.32640618  0.01546972  0.37220450    -0.05800
C679        C  0.30372725  0.00398384  0.38983858     0.00100
C680        C  0.31078731  0.99525144  0.42411310    -0.08300
C681        C  0.28706512  0.98426668  0.44591930     0.62000
H682        H  0.34752410  0.98958649  0.46433760     0.12700
H683        H  0.32024354  0.02337861  0.34653368     0.12700
C684        C  0.38782900  0.51612587  0.36753200     0.62300
F685        F  0.30053815  0.97549762  0.47782728    -0.22900
F686        F  0.28313706  0.95541264  0.43323120    -0.20200
F687        F  0.25471474  0.01150156  0.44789425    -0.19900
F688        F  0.42245802  0.49292523  0.36972523    -0.19900
F689        F  0.37632202  0.06253683  0.88806986    -0.20300
F690        F  0.36220887  0.04687968  0.83938571    -0.22900
C691        C  0.13908659  0.98047433  0.39508037    -0.05800
C692        C  0.13125427  0.99858120  0.42478739     0.00100
C693        C  0.15153523  0.01768738  0.43475550    -0.08400
C694        C  0.17814967  0.01826711  0.41411315    -0.05800
C695        C  0.18667797  0.99917786  0.38517439     0.00100
C696        C  0.16687184  0.97970928  0.37535390    -0.08300
C697        C  0.17522419  0.95723797  0.34503183     0.62000
H698        H  0.12320095  0.96653273  0.38722344     0.12700
H699        H  0.19297742  0.03367433  0.42069955     0.12700
C700        C  0.15601988  0.52598993  0.46809620     0.62300
F701        F  0.15522730  0.93729591  0.34296193    -0.22900
F702        F  0.21013826  0.93461260  0.34624324    -0.20200
F703        F  0.17107796  0.47543332  0.31513049    -0.19900
F704        F  0.15394650  0.00279841  0.99961436    -0.19900
F705        F  0.12565153  0.55591145  0.46791664    -0.20300
F706        F  0.18387930  0.53548966  0.47517140    -0.22900
C707        C  0.32089945  0.97654781  0.07810987    -0.05800
C708        C  0.31567717  0.98878850  0.11039007     0.00100
C709        C  0.33748089  0.00512623  0.12318437    -0.08400
C710        C  0.36594643  0.00481567  0.10448061    -0.05800
C711        C  0.37182487  0.99138680  0.07260216     0.00100
C712        C  0.34749135  0.97898883  0.05843507    -0.08300
C713        C  0.34800258  0.97017511  0.02228769     0.62000
H714        H  0.30386014  0.96491576  0.06807767     0.12700
H715        H  0.38395531  0.01525431  0.11484535     0.12700
C716        C  0.33030726  0.02436785  0.15548603     0.62300
F717        F  0.42648669  0.91647527  0.57810983    -0.22900
F718        F  0.39140847  0.92260976  0.53297224    -0.20200
F719        F  0.41584329  0.41156413  0.13730420    -0.19900
F720        F  0.33892858  0.00086183  0.18187927    -0.19900
F721        F  0.29525934  0.04645065  0.15657649    -0.20300
F722        F  0.34984620  0.04459112  0.15895119    -0.22900
C723        C  0.16830450  0.50613314  0.11381394    -0.05800
C724        C  0.19876752  0.98280170  0.11089573     0.00100
C725        C  0.19997072  0.96118747  0.08395832    -0.08400
C726        C  0.16819633  0.96334557  0.06928756    -0.05800
C727        C  0.13585461  0.98648495  0.08040250     0.00100
C728        C  0.13709076  0.50840618  0.09800542    -0.08300
C729        C  0.10302817  0.53921121  0.10399099     0.62000
H730        H  0.16815288  0.52641503  0.13017462     0.12700
H731        H  0.16829126  0.94742373  0.04847605     0.12700
C732        C  0.23430164  0.93590120  0.07064838     0.62300
F733        F  0.10684836  0.55999123  0.12866570    -0.22900
F734        F  0.07742670  0.52745245  0.11326929    -0.20200
F735        F  0.09212230  0.55958654  0.07545578    -0.19900
F736        F  0.25569553  0.91578244  0.09615002    -0.19900
F737        F  0.25097830  0.95437312  0.05451801    -0.20300
F738        F  0.22906998  0.91356108  0.04834941    -0.22900
O739        O  0.09638101  0.96482035  0.56477576    -0.75300
O740        O  0.09264909  0.51345864  0.53719211    -0.54200
C741        C  0.10583266  0.99025299  0.55841208     0.78400
O742        O  0.03062821  0.90303349  0.93509606    -0.59900
O743        O  0.47829975  0.90750216  0.95944849    -0.52900
C744        C  0.50201482  0.89382307  0.93800412     0.70400
O745        O  0.09621567  0.96794858  0.94226598    -0.74500
O746        O  0.09211216  0.51212695  0.96754178    -0.55000
C747        C  0.10595889  0.99294197  0.94915707     0.76500
O748        O  0.03112965  0.89945155  0.56418249    -0.59600
O749        O  0.47686302  0.90720907  0.52857785    -0.52700
C750        C  0.50103974  0.89160738  0.55043144     0.73000
Zr751      Zr  0.04894242  0.94705044  0.54840943     2.54700
O752        O  0.10225169  0.89510364  0.54240023    -0.80200
O753        O  0.05190973  0.94211558  0.60839551    -0.93600
Zr754      Zr  0.04937025  0.94836828  0.95520781     2.64700
O755        O  0.10138061  0.89492816  0.96404683    -0.98500
O756        O  0.05581070  0.94713599  0.89563805    -0.80600
O757        O  0.06565521  0.96901965  0.50011544    -0.84000
O758        O  0.02888030  0.93054097  0.49913777    -2.18700
O759        O  0.41389872  0.51062275  0.56541594    -0.67300
O760        O  0.41432777  0.97065066  0.53132547    -0.51900
C761        C  0.40467364  0.48541594  0.55812086     0.71400
O762        O  0.47607808  0.58737687  0.93874719    -0.60300
O763        O  0.02947432  0.57714667  0.96656844    -0.52200
C764        C  0.00537300  0.59294004  0.94473937     0.73200
O765        O  0.41494565  0.51848735  0.93394804    -0.71600
O766        O  0.41742475  0.97071695  0.95923842    -0.50300
C767        C  0.40525623  0.49320434  0.94012277     0.74600
O768        O  0.47304404  0.58155547  0.56565679    -0.67000
O769        O  0.02909902  0.57694528  0.53745252    -0.54200
C770        C  0.00486132  0.59070813  0.55853368     0.73000
Zr771      Zr  0.45764943  0.53322946  0.54880591     2.77500
O772        O  0.40228604  0.58392217  0.54634411    -0.97700
O773        O  0.45964371  0.53122327  0.60883421    -0.78500
Zr774      Zr  0.46008599  0.53825154  0.95329501     2.70100
O775        O  0.40446849  0.58854786  0.95195102    -0.79800
O776        O  0.46700028  0.54076584  0.89396052    -0.98900
Zr777      Zr  0.04254634  0.52854190  0.50008838     2.21500
Zr778      Zr  0.46654156  0.95514063  0.99713903     2.11100
O779        O  0.44210856  0.51650425  0.00107780    -2.47600
O780        O  0.47704732  0.55618242  0.00357571    -0.79600
O781        O  0.48247270  0.97427420  0.54595793    -0.71800
O782        O  0.02260722  0.51062700  0.95132761    -2.32700
O783        O  0.02356587  0.50960264  0.54915536    -2.28900
O784        O  0.48580306  0.97422229  0.94841546    -0.73500
H785        H  0.03740684  0.90543221  0.49841819     0.78500
H786        H  0.03164665  0.51919143  0.93281754     0.79500
H787        H  0.41687909  0.52402782  0.00057903     0.81800
H788        H  0.03186186  0.51745530  0.56854837     0.79400
H789        H  0.05072679  0.97161308  0.88880272     0.42400
H790        H  0.47209921  0.51677809  0.88674034     0.41400
H791        H  0.39211917  0.58518835  0.97160025     0.41100
H792        H  0.40593765  0.59996191  0.52985738     0.39000
H793        H  0.46148594  0.50746506  0.61507214     0.42100
H794        H  0.05175241  0.96469888  0.61570892     0.36900
H795        H  0.11638699  0.90238072  0.52671917     0.43000
H796        H  0.11146461  0.88934285  0.94189898     0.39400
H797        H  0.38538394  0.57582236  0.53542324     0.44400
H798        H  0.07599681  0.92506708  0.61374733     0.43100
H799        H  0.11812907  0.90213348  0.97641988     0.43200
H800        H  0.44319153  0.55488331  0.88493597     0.43600
C801        C  0.00482975  0.76831592  0.63065966     0.80200
N802        N  0.00293883  0.76706387  0.66401913    -0.78100
C803        C  0.00331114  0.73807176  0.68028259     0.82700
N804        N  0.00471292  0.71031196  0.66253363    -0.78000
C805        C  0.00639676  0.71095128  0.62905059     0.82800
N806        N  0.00617925  0.74016965  0.61341454    -0.79700
C807        C  0.00954899  0.77023450  0.87262011     0.80200
N808        N  0.00652880  0.77041261  0.83923397    -0.78100
C809        C  0.00491873  0.74248599  0.82366008     0.82700
N810        N  0.00634161  0.71423493  0.84200601    -0.78000
C811        C  0.00871300  0.71400830  0.87549240     0.82800
N812        N  0.01057541  0.74202494  0.89060500    -0.79700
C813        C  0.28553720  0.98722306  0.62904343     0.80200
N814        N  0.28522393  0.98822260  0.66245723    -0.78100
C815        C  0.25703438  0.98787666  0.67891067     0.82700
N816        N  0.22893368  0.98723102  0.66163821    -0.78000
C817        C  0.22945951  0.98565502  0.62824867     0.82800
N818        N  0.25773950  0.98582384  0.61204308    -0.79700
C819        C  0.27878772  0.99524108  0.87042919     0.80200
N820        N  0.25047124  0.99606124  0.88729445    -0.78100
C821        C  0.22092015  0.99764283  0.87102341     0.82700
N822        N  0.21973750  0.99921626  0.83746524    -0.78000
C823        C  0.24790162  0.99866966  0.82038890     0.82800
N824        N  0.27733208  0.99642729  0.83704207    -0.79700
C825        C  0.22611260  0.01613620  0.72853850    -0.05800
C826        C  0.25571567  0.99024211  0.71519082     0.00100
C827        C  0.28255744  0.96724916  0.73653586    -0.08400
C828        C  0.27812693  0.97046670  0.77072456    -0.05800
C829        C  0.24866546  0.99649333  0.78409715     0.00100
C830        C  0.22258606  0.02043661  0.76278684    -0.08300
C831        C  0.19259377  0.05166897  0.77587746     0.62000
H832        H  0.20615145  0.03371263  0.71173850     0.12700
H833        H  0.29806218  0.95280864  0.78749468     0.12700
C834        C  0.31562088  0.93932899  0.72355755     0.62300
F835        F  0.18178368  0.56543955  0.75553285    -0.22900
F836        F  0.21412394  0.55714723  0.80204447    -0.20200
F837        F  0.17041603  0.04083164  0.79379796    -0.19900
F838        F  0.33551153  0.95485394  0.70796271    -0.19900
F839        F  0.30685990  0.91896704  0.70150852    -0.20300
F840        F  0.33626133  0.91757993  0.74865126    -0.22900
C841        C  0.02136861  0.71034280  0.77169920    -0.05800
C842        C  0.00274043  0.74202956  0.78695173     0.00100
C843        C  0.47897141  0.77597722  0.76280860    -0.08400
C844        C  0.48043149  0.77305582  0.72826909    -0.05800
C845        C  0.00235978  0.73732716  0.71708944     0.00100
C846        C  0.02168022  0.70730098  0.73714365    -0.08300
C847        C  0.04343166  0.67232874  0.72256836     0.62000
H848        H  0.03633636  0.68782474  0.78725055     0.12700
H849        H  0.46600486  0.79568651  0.71263882     0.12700
C850        C  0.45560393  0.81046598  0.77725336     0.62300
F851        F  0.06333146  0.64818857  0.74644510    -0.22900
F852        F  0.06625847  0.67635458  0.69985545    -0.20200
F853        F  0.02151718  0.65882856  0.70740622    -0.19900
F854        F  0.47601474  0.82596640  0.79192894    -0.19900
F855        F  0.43393914  0.80493911  0.80037254    -0.20300
F856        F  0.43436822  0.83358052  0.75332307    -0.22900
C857        C  0.47164501  0.65920610  0.92715402    -0.05800
C858        C  0.00732062  0.62345703  0.92743411     0.00100
C859        C  0.02837700  0.61985398  0.89958168    -0.08400
C860        C  0.02875212  0.65008924  0.88383023    -0.05800
C861        C  0.00858932  0.68353802  0.89504090     0.00100
C862        C  0.46978569  0.68925580  0.90931447    -0.08300
C863        C  0.43715567  0.72261932  0.91076672     0.62000
H864        H  0.44986252  0.65992745  0.94200905     0.12700
H865        H  0.04471578  0.64783583  0.86241062     0.12700
C866        C  0.04974706  0.58413161  0.88639454     0.62300
F867        F  0.41075793  0.71767531  0.92796756    -0.22900
F868        F  0.42445299  0.73444538  0.87916187    -0.20200
F869        F  0.44523775  0.74781616  0.92639365    -0.19900
F870        F  0.02773456  0.56744181  0.87837119    -0.19900
F871        F  0.07406358  0.56435695  0.91014227    -0.20300
F872        F  0.06763122  0.58624913  0.85842601    -0.22900
C873        C  0.03683681  0.83133045  0.92386718    -0.05800
C874        C  0.00615689  0.86185624  0.92195348     0.00100
C875        C  0.47500435  0.86735167  0.89537259    -0.08400
C876        C  0.47582444  0.83734152  0.87941895    -0.05800
C877        C  0.00966400  0.80136018  0.88934393     0.00100
C878        C  0.03906274  0.80086685  0.90794318    -0.08300
C879        C  0.07282543  0.76850931  0.91034801     0.62000
H880        H  0.05888486  0.83133777  0.93861012     0.12700
H881        H  0.45594522  0.83941204  0.86086879     0.12700
C882        C  0.44681097  0.90270301  0.88605930     0.62300
F883        F  0.09962968  0.77495309  0.92586751    -0.22900
F884        F  0.08356354  0.75702886  0.87906257    -0.20200
F885        F  0.06742583  0.74247040  0.92816047    -0.19900
F886        F  0.46214515  0.92565218  0.87712879    -0.19900
F887        F  0.42722264  0.92488186  0.40335392    -0.20300
F888        F  0.42577345  0.90094395  0.85986229    -0.22900
C889        C  0.48363268  0.66434797  0.62263466    -0.05800
C890        C  0.00720779  0.68019886  0.61017519     0.00100
C891        C  0.02411709  0.67033750  0.57954820    -0.08400
C892        C  0.02247496  0.64115058  0.56376166    -0.05800
C893        C  0.00549499  0.62087362  0.57761113     0.00100
C894        C  0.48165973  0.63467693  0.60836017    -0.08300
C895        C  0.46481006  0.61394340  0.62782703     0.62000
H896        H  0.47179477  0.67254476  0.64623150     0.12700
H897        H  0.03424259  0.63420707  0.53993248     0.12700
C898        C  0.04457472  0.68962623  0.56353585     0.62300
F899        F  0.45554228  0.62673659  0.65904939    -0.22900
F900        F  0.48822003  0.57964498  0.63165377    -0.20200
F901        F  0.43454794  0.61554759  0.61164439    -0.19900
F902        F  0.06766062  0.69392796  0.58634199    -0.19900
F903        F  0.02165211  0.72179440  0.55128960    -0.20300
F904        F  0.06413238  0.67155967  0.53754345    -0.22900
C905        C  0.51414116  0.85431140  0.60099348    -0.05800
C906        C  0.00626822  0.85756390  0.57447354     0.00100
C907        C  0.99483121  0.83302574  0.55981724    -0.08400
C908        C  0.99385710  0.80521285  0.57949737    -0.05800
C909        C  0.00547440  0.79982774  0.61273138     0.00100
C910        C  0.51559146  0.82550867  0.62047499    -0.08300
C911        C  0.53395165  0.81948609  0.65418187     0.62000
H912        H  0.52378372  0.87273513  0.61133411     0.12700
H913        H  0.98380164  0.78728980  0.56877509     0.12700
C914        C  0.98525352  0.83485402  0.52327426     0.62300
F915        F  0.55107502  0.84174477  0.65907839    -0.22900
F916        F  0.55890460  0.78573539  0.65705318    -0.20200
F917        F  0.50969265  0.82524224  0.67873016    -0.19900
F918        F  0.01114123  0.83930935  0.50488683    -0.19900
F919        F  0.95350263  0.86226444  0.51663513    -0.20300
F920        F  0.98219405  0.80459142  0.51317635    -0.22900
C921        C  0.35633111  0.97305351  0.93042893    -0.05800
C922        C  0.37282306  0.99458085  0.91796562     0.00100
C923        C  0.35920571  0.01424167  0.88817732    -0.08400
C924        C  0.32804710  0.01403969  0.87418787    -0.05800
C925        C  0.31095619  0.99387313  0.88772408     0.00100
C926        C  0.32599957  0.97184828  0.91560260    -0.08300
C927        C  0.31110208  0.94627383  0.92914873     0.62000
H928        H  0.36738058  0.95676742  0.95213881     0.12700
H929        H  0.31654355  0.02995342  0.85227794     0.12700
C930        C  0.38020909  0.52863100  0.87169696     0.62300
F931        F  0.33377368  0.92283173  0.95204816    -0.22900
F932        F  0.30542864  0.92721008  0.90380469    -0.20200
F933        F  0.27982441  0.96416274  0.94448632    -0.19900
F934        F  0.41561222  0.50832553  0.86955287    -0.19900
F935        F  0.37931169  0.06055863  0.37661404    -0.20300
F936        F  0.36937111  0.03393664  0.33273876    -0.22900
C937        C  0.14257795  0.97862264  0.89963988    -0.05800
C938        C  0.13617691  0.99453575  0.93048133     0.00100
C939        C  0.15853190  0.01085554  0.94191877    -0.08400
C940        C  0.18521665  0.01184778  0.92126462    -0.05800
C941        C  0.19102757  0.99646887  0.89020087     0.00100
C942        C  0.16994450  0.97856812  0.87958461    -0.08300
C943        C  0.17642890  0.95852880  0.84777342     0.62000
H944        H  0.12552199  0.96628589  0.89089143     0.12700
H945        H  0.20185116  0.02496160  0.92929723     0.12700
C946        C  0.16042988  0.51486374  0.97617770     0.62300
F947        F  0.15778719  0.93728428  0.84612904    -0.22900
F948        F  0.21163488  0.93732179  0.84562314    -0.20200
F949        F  0.17600523  0.46549809  0.82122261    -0.19900
F950        F  0.14885280  0.01338632  0.49311893    -0.19900
F951        F  0.13117834  0.54551476  0.97860811    -0.20300
F952        F  0.18959082  0.52180469  0.98452685    -0.22900
C953        C  0.33899832  0.95766545  0.59805712    -0.05800
C954        C  0.31537861  0.98855927  0.61095895     0.00100
C955        C  0.31925600  0.02026890  0.60477080    -0.08400
C956        C  0.34792486  0.01982879  0.58646763    -0.05800
C957        C  0.37223525  0.98882349  0.57367462     0.00100
C958        C  0.36756808  0.95703129  0.57939915    -0.08300
C959        C  0.39287798  0.92233599  0.56704684     0.62000
H960        H  0.33471131  0.93395498  0.60276510     0.12700
H961        H  0.35127331  0.04399125  0.58163948     0.12700
C962        C  0.29255973  0.05443402  0.61677074     0.62300
F963        F  0.37537346  0.93869962  0.01695171    -0.22900
F964        F  0.35175616  0.99634873  0.00318026    -0.20200
F965        F  0.40803342  0.39319334  0.61395016    -0.19900
F966        F  0.29211886  0.05352903  0.65084268    -0.19900
F967        F  0.25956313  0.05953795  0.60429395    -0.20300
F968        F  0.30016010  0.08262422  0.60674793    -0.22900
C969        C  0.17118428  0.51387018  0.60945114    -0.05800
C970        C  0.19847420  0.98616506  0.60966451     0.00100
C971        C  0.20029976  0.96025003  0.58686233    -0.08400
C972        C  0.16922431  0.96250227  0.57064330    -0.05800
C973        C  0.13712208  0.99002723  0.57611161     0.00100
C974        C  0.14025818  0.51780438  0.59192584    -0.08300
C975        C  0.11011240  0.55338382  0.58969870     0.62000
H976        H  0.17378347  0.53612003  0.62072248     0.12700
H977        H  0.16976634  0.94301708  0.55314130     0.12700
C978        C  0.23459458  0.93000039  0.58021301     0.62300
F979        F  0.11645705  0.57735593  0.60911319    -0.22900
F980        F  0.07961954  0.55072059  0.60027768    -0.20200
F981        F  0.10535151  0.56616991  0.55749413    -0.19900
F982        F  0.25062365  0.91388614  0.60966872    -0.19900
F983        F  0.25673406  0.94204022  0.56355679    -0.20300
F984        F  0.22936014  0.90519214  0.56113166    -0.22900
O985        O  0.59633985  0.46736564  0.06782622    -0.75300
O986        O  0.59392254  0.00790194  0.03795311    -0.54200
C987        C  0.60564737  0.49295065  0.06172501     0.78400
O988        O  0.52856113  0.40533833  0.43342079    -0.59900
O989        O  0.97979749  0.40763009  0.46054507    -0.52900
C990        C  0.00321601  0.39407420  0.43886261     0.70400
O991        O  0.59384205  0.46915806  0.44166625    -0.74500
O992        O  0.58699361  0.02032291  0.46580949    -0.55000
C993        C  0.60318749  0.49451558  0.44771186     0.76500
O994        O  0.53454015  0.39859505  0.06411623    -0.59600
O995        O  0.97596677  0.40518420  0.03173110    -0.52700
C996        C  0.99852360  0.39062286  0.05507577     0.73000
Zr997      Zr  0.54993613  0.44828572  0.05084405     2.54700
O998        O  0.60549855  0.39819149  0.04849722    -0.80200
O999        O  0.54962577  0.44484715  0.11084289    -0.93600
Zr1000     Zr  0.54618079  0.45108611  0.45311155     2.64700
O1001       O  0.59759987  0.39652271  0.45694606    -0.98500
O1002       O  0.54791145  0.45502215  0.39324745    -0.80600
O1003       O  0.56749263  0.47026395  0.00308431    -0.84000
O1004       O  0.53226994  0.43050445  0.00094572    -2.18700
O1005       O  0.91513622  0.00881571  0.06617636    -0.67300
O1006       O  0.91669779  0.46598163  0.03362549    -0.51900
C1007       C  0.90536120  0.98422054  0.05782755     0.71400
O1008       O  0.97511959  0.08687870  0.43670262    -0.60300
O1009       O  0.52490770  0.08374542  0.46557677    -0.52200
C1010       C  0.50050379  0.09938033  0.44387572     0.73200
O1011       O  0.90951712  0.02194935  0.43727058    -0.71600
O1012       O  0.91849906  0.47095000  0.45933557    -0.50300
C1013       C  0.89880853  0.99745991  0.44384909     0.74600
O1014       O  0.97292532  0.08117806  0.06458527    -0.67000
O1015       O  0.53039732  0.07333371  0.03921256    -0.54200
C1016       C  0.50629833  0.08753739  0.06025586     0.73000
Zr1017     Zr  0.95805998  0.03236339  0.04863195     2.77500
O1018       O  0.90191578  0.08213876  0.04710867    -0.97700
O1019       O  0.96111719  0.02977426  0.10864720    -0.78500
Zr1020     Zr  0.95789624  0.03887923  0.45268591     2.70100
O1021       O  0.90583022  0.09278249  0.44869867    -0.79800
O1022       O  0.96430381  0.03324057  0.39327578    -0.98900
Zr1023     Zr  0.54323368  0.02518430  0.00185485     2.21500
Zr1024     Zr  0.96756061  0.45565521  0.49759054     2.11100
O1025       O  0.94060979  0.01829248  0.50163655    -2.47600
O1026       O  0.97680704  0.05595540  0.50253435    -0.79600
O1027       O  0.98275456  0.47171782  0.04758342    -0.71800
O1028       O  0.51905611  0.01715242  0.45011141    -2.32700
O1029       O  0.52421344  0.00555481  0.05053883    -2.28900
O1030       O  0.98655705  0.47435865  0.44841296    -0.73500
H1031       H  0.54152611  0.40535355  0.00024525     0.78500
H1032       H  0.52729437  0.02660315  0.43165045     0.79500
H1033       H  0.91532071  0.02672308  0.50201522     0.81800
H1034       H  0.53289260  0.01271396  0.07013011     0.79400
H1035       H  0.56910914  0.43466371  0.38739320     0.42400
H1036       H  0.95803283  0.01328453  0.38788390     0.41400
H1037       H  0.89611336  0.09552310  0.47109546     0.41100
H1038       H  0.90717876  0.10180397  0.03815264     0.39000
H1039       H  0.96366378  0.00576494  0.11477097     0.42100
H1040       H  0.54322713  0.46914678  0.11780017     0.36900
H1041       H  0.60000892  0.38069081  0.03603481     0.43000
H1042       H  0.61038231  0.39615695  0.43644067     0.39400
H1043       H  0.88799851  0.07722094  0.02931949     0.44400
H1044       H  0.57463778  0.43277093  0.11765010     0.43100
H1045       H  0.61250197  0.40006087  0.47465837     0.43200
H1046       H  0.94487823  0.05397097  0.38367514     0.43600
C1047       C  0.51032696  0.26523412  0.12748180     0.80200
N1048       N  0.50674237  0.26571413  0.16062641    -0.78100
C1049       C  0.50453640  0.23831913  0.17761737     0.82700
N1050       N  0.50508743  0.21030217  0.16078492    -0.78000
C1051       C  0.50850519  0.20918245  0.12746246     0.82800
N1052       N  0.51078339  0.23694407  0.11102554    -0.79700
C1053       C  0.50403047  0.27467045  0.37041819     0.80200
N1054       N  0.50318798  0.27494352  0.33684688    -0.78100
C1055       C  0.50026932  0.24800472  0.32044850     0.82700
N1056       N  0.49846096  0.22064115  0.33806667    -0.78000
C1057       C  0.49854829  0.22052047  0.37153363     0.82800
N1058       N  0.50143319  0.24752311  0.38750293    -0.79700
C1059       C  0.78873367  0.48304848  0.13410093     0.80200
N1060       N  0.78781235  0.48221435  0.16745693    -0.78100
C1061       C  0.75878860  0.48278370  0.18283746     0.82700
N1062       N  0.73029672  0.48461479  0.16467486    -0.78000
C1063       C  0.73115361  0.48467741  0.13127727     0.82800
N1064       N  0.76039569  0.48396552  0.11605096    -0.79700
C1065       C  0.77948166  0.49237102  0.37362814     0.80200
N1066       N  0.75128840  0.49286018  0.39042429    -0.78100
C1067       C  0.72279927  0.49199413  0.37416742     0.82700
N1068       N  0.72219572  0.49182848  0.34076266    -0.78000
C1069       C  0.75000806  0.49194462  0.32372533     0.82800
N1070       N  0.77870771  0.49183477  0.34024280    -0.79700
C1071       C  0.72792085  0.51018835  0.23245882    -0.05800
C1072       C  0.75708785  0.48393663  0.21899076     0.00100
C1073       C  0.78319981  0.45959619  0.24004508    -0.08400
C1074       C  0.77947524  0.46314147  0.27422483    -0.05800
C1075       C  0.75052988  0.48961497  0.28766508     0.00100
C1076       C  0.72413155  0.51359622  0.26667743    -0.08300
C1077       C  0.69285911  0.54330715  0.28017112     0.62000
H1078       H  0.70827506  0.52838827  0.21580588     0.12700
H1079       H  0.79925750  0.44512866  0.29090207     0.12700
C1080       C  0.81423944  0.42942859  0.22677972     0.62300
F1081       F  0.78710584  0.05381515  0.25802108    -0.22900
F1082       F  0.81399525  0.01331111  0.29741054    -0.20200
F1083       F  0.67184528  0.53015622  0.29720881    -0.19900
F1084       F  0.83680740  0.44181813  0.21140484    -0.19900
F1085       F  0.80253669  0.41144548  0.20446081    -0.20300
F1086       F  0.83308405  0.40607120  0.25167705    -0.22900
C1087       C  0.51874644  0.21436035  0.26973992    -0.05800
C1088       C  0.50083557  0.24694551  0.28374534     0.00100
C1089       C  0.96727008  0.27295305  0.26402413    -0.08400
C1090       C  0.96862214  0.27010722  0.22950562    -0.05800
C1091       C  0.50241000  0.23939838  0.21424608     0.00100
C1092       C  0.52018545  0.20995458  0.23541302    -0.08300
C1093       C  0.54145668  0.17412220  0.22224425     0.62000
H1094       H  0.53212418  0.19209939  0.28614207     0.12700
H1095       H  0.94916865  0.28989523  0.21391664     0.12700
C1096       C  0.93767695  0.30308372  0.27906040     0.62300
F1097       F  0.56009087  0.15062027  0.24709746    -0.22900
F1098       F  0.56540046  0.17639036  0.19983452    -0.20200
F1099       F  0.51924601  0.16093756  0.20715523    -0.19900
F1100       F  0.95094638  0.32498179  0.29408441    -0.19900
F1101       F  0.92101092  0.29046396  0.30216816    -0.20300
F1102       F  0.91278660  0.32255988  0.25549922    -0.22900
C1103       C  0.97831530  0.16110955  0.43666088    -0.05800
C1104       C  0.50138931  0.13003572  0.42597825     0.00100
C1105       C  0.52440206  0.12672746  0.39968632    -0.08400
C1106       C  0.52251602  0.15700513  0.38241188    -0.05800
C1107       C  0.49806024  0.19005225  0.39042769     0.00100
C1108       C  0.97654817  0.19195741  0.42027699    -0.08300
C1109       C  0.95201036  0.22698031  0.43275239     0.62000
H1110       H  0.96274209  0.16242367  0.45819399     0.12700
H1111       H  0.54034867  0.15513965  0.36258936     0.12700
C1112       C  0.55029916  0.09127051  0.38970609     0.62300
F1113       F  0.93089891  0.22324589  0.45744437    -0.22900
F1114       F  0.93033201  0.24668901  0.40721767    -0.20200
F1115       F  0.97133526  0.24462083  0.44554784    -0.19900
F1116       F  0.53252658  0.07028914  0.38179003    -0.19900
F1117       F  0.57365472  0.07593769  0.41560303    -0.20300
F1118       F  0.56928784  0.09356988  0.36260414    -0.22900
C1119       C  0.52931115  0.32976013  0.43156700    -0.05800
C1120       C  0.50553814  0.36316957  0.42191152     0.00100
C1121       C  0.97049634  0.36548529  0.40401173    -0.08400
C1122       C  0.97141871  0.33615966  0.38674544    -0.05800
C1123       C  0.50631519  0.30437162  0.38825395     0.00100
C1124       C  0.52967353  0.29994680  0.41564642    -0.08300
C1125       C  0.55478591  0.26417635  0.42830804     0.62000
H1126       H  0.54703165  0.32718155  0.45229934     0.12700
H1127       H  0.94799374  0.33645577  0.37421525     0.12700
C1128       C  0.93641256  0.39750409  0.40463815     0.62300
F1129       F  0.57942377  0.26642644  0.45062749    -0.22900
F1130       F  0.57268118  0.24443002  0.40241776    -0.20200
F1131       F  0.53618873  0.24737546  0.44413745    -0.19900
F1132       F  0.94209919  0.42669871  0.39441271    -0.19900
F1133       F  0.92213113  0.41148764  0.92171076    -0.20300
F1134       F  0.91078494  0.39457882  0.38401823    -0.22900
C1135       C  0.98535625  0.16020381  0.12526861    -0.05800
C1136       C  0.50920837  0.17789541  0.10965126     0.00100
C1137       C  0.52798023  0.16591241  0.08028855    -0.08400
C1138       C  0.52570364  0.13681531  0.06494709    -0.05800
C1139       C  0.50743606  0.11778091  0.07880996     0.00100
C1140       C  0.98543523  0.12995890  0.11047005    -0.08300
C1141       C  0.97461193  0.10484402  0.13067998     0.62000
H1142       H  0.97653567  0.16541233  0.15030830     0.12700
H1143       H  0.53838150  0.12874710  0.04166045     0.12700
C1144       C  0.55154064  0.18246383  0.06554082     0.62300
F1145       F  0.97225285  0.11243095  0.16384283    -0.22900
F1146       F  0.99911827  0.07112760  0.12797448    -0.20200
F1147       F  0.94206134  0.10694018  0.11958881    -0.19900
F1148       F  0.57324117  0.18665627  0.08989303    -0.19900
F1149       F  0.53132870  0.21444158  0.05091741    -0.20300
F1150       F  0.57287067  0.16194341  0.04170112    -0.22900
C1151       C  0.97341133  0.36687079  0.09915625    -0.05800
C1152       C  0.51252782  0.35422507  0.07204906     0.00100
C1153       C  0.50124655  0.32976340  0.05690924    -0.08400
C1154       C  0.50118717  0.30120361  0.07599961    -0.05800
C1155       C  0.51286378  0.29554381  0.10916869     0.00100
C1156       C  0.97012510  0.33932167  0.11749497    -0.08300
C1157       C  0.94402331  0.34761648  0.14513192     0.62000
H1158       H  0.95859628  0.39365450  0.10564626     0.12700
H1159       H  0.49117982  0.28331706  0.06510429     0.12700
C1160       C  0.49013851  0.33283529  0.02067291     0.62300
F1161       F  0.92177323  0.38253518  0.14442308    -0.22900
F1162       F  0.96176469  0.33992650  0.17527371    -0.20200
F1163       F  0.92350434  0.32833105  0.14213715    -0.19900
F1164       F  0.51518194  0.33801973  0.00160450    -0.19900
F1165       F  0.45811082  0.36034403  0.01556217    -0.20300
F1166       F  0.48664239  0.30294710  0.01004072    -0.22900
C1167       C  0.85413269  0.47720188  0.43545355    -0.05800
C1168       C  0.87209402  0.49576627  0.42005349     0.00100
C1169       C  0.85919942  0.51304821  0.38903764    -0.08400
C1170       C  0.82830601  0.51183971  0.37554311    -0.05800
C1171       C  0.81068419  0.49319001  0.39100970     0.00100
C1172       C  0.82415658  0.47481985  0.42119751    -0.08300
C1173       C  0.80818464  0.45162400  0.43790988     0.62000
H1174       H  0.86377334  0.46427227  0.45911893     0.12700
H1175       H  0.81756289  0.52554891  0.35239673     0.12700
C1176       C  0.85386723  0.05557538  0.39314209     0.62300
F1177       F  0.82927718  0.43171234  0.46372022    -0.22900
F1178       F  0.80401440  0.42892705  0.41541810    -0.20200
F1179       F  0.77602908  0.47184026  0.45059749    -0.19900
F1180       F  0.88626486  0.04528204  0.37877035    -0.19900
F1181       F  0.87899204  0.55830095  0.88184225    -0.20300
F1182       F  0.86794996  0.53702588  0.83489534    -0.22900
C1183       C  0.64517419  0.47298520  0.40281897    -0.05800
C1184       C  0.63467776  0.49439769  0.43036156     0.00100
C1185       C  0.65466768  0.51386442  0.44013981    -0.08400
C1186       C  0.68328752  0.51211076  0.42096295    -0.05800
C1187       C  0.69274743  0.49156662  0.39295274     0.00100
C1188       C  0.67420338  0.47061416  0.38430201    -0.08300
C1189       C  0.68532514  0.44488805  0.35645335     0.62000
H1190       H  0.63012045  0.45807191  0.39532817     0.12700
H1191       H  0.69828529  0.52744368  0.42739772     0.12700
C1192       C  0.66579584  0.99158181  0.47983882     0.62300
F1193       F  0.66785173  0.42251169  0.35693705    -0.22900
F1194       F  0.72089692  0.42467488  0.35941777    -0.20200
F1195       F  0.65792464  0.03797121  0.32576434    -0.19900
F1196       F  0.65721584  0.49391758  0.99650775    -0.19900
F1197       F  0.64368846  0.02200929  0.49389554    -0.20300
F1198       F  0.69966323  0.98509496  0.49078443    -0.22900
C1199       C  0.83212122  0.45965523  0.09106663    -0.05800
C1200       C  0.82038807  0.48233513  0.11720650     0.00100
C1201       C  0.83805272  0.50424100  0.12545195    -0.08400
C1202       C  0.86529445  0.50441743  0.10531372    -0.05800
C1203       C  0.87647650  0.48267906  0.07803025     0.00100
C1204       C  0.86045650  0.45846977  0.07177369    -0.08300
C1205       C  0.87256994  0.43110959  0.04541733     0.62000
H1206       H  0.81878054  0.44244711  0.08606374     0.12700
H1207       H  0.87822382  0.52176728  0.11111350     0.12700
C1208       C  0.82816390  0.52776756  0.15497009     0.62300
F1209       F  0.91515468  0.41835417  0.56964653    -0.22900
F1210       F  0.87964003  0.43370856  0.52399183    -0.20200
F1211       F  0.81361336  0.97303811  0.01316996    -0.19900
F1212       F  0.83608956  0.50762403  0.18378465    -0.19900
F1213       F  0.79270079  0.54854993  0.15344432    -0.20300
F1214       F  0.84632789  0.54948882  0.15620228    -0.22900
C1215       C  0.67068592  0.00635380  0.11206681    -0.05800
C1216       C  0.69976966  0.48689420  0.11200619     0.00100
C1217       C  0.70068736  0.46164493  0.08877344    -0.08400
C1218       C  0.66916474  0.46469395  0.07290324    -0.05800
C1219       C  0.63734413  0.49227245  0.07914775     0.00100
C1220       C  0.63956290  0.00920874  0.09575040    -0.08300
C1221       C  0.60636991  0.04169514  0.09967330     0.62000
H1222       H  0.67113356  0.02745026  0.12699337     0.12700
H1223       H  0.66910014  0.44568173  0.05511030     0.12700
C1224       C  0.73449368  0.43122421  0.08125059     0.62300
F1225       F  0.61056450  0.06302180  0.12363969    -0.22900
F1226       F  0.57901064  0.03242949  0.10874679    -0.20200
F1227       F  0.59770071  0.06070583  0.07022543    -0.19900
F1228       F  0.75062098  0.41387199  0.11022279    -0.19900
F1229       F  0.75680144  0.44337006  0.06506699    -0.20300
F1230       F  0.72851813  0.40744623  0.06127441    -0.22900
O1231       O  0.59297371  0.46935712  0.56660708    -0.75300
O1232       O  0.58907928  0.01509755  0.53682884    -0.54200
C1233       C  0.60155474  0.49529041  0.55997128     0.78400
O1234       O  0.53213967  0.40622818  0.93424410    -0.59900
O1235       O  0.97615292  0.40871184  0.95895347    -0.52900
C1236       C  0.00029993  0.39468030  0.93804985     0.70400
O1237       O  0.59341742  0.47498537  0.93907702    -0.74500
O1238       O  0.59398739  0.01163756  0.96777129    -0.55000
C1239       C  0.60296204  0.49983402  0.94689164     0.76500
O1240       O  0.53230047  0.39977589  0.56605677    -0.59600
O1241       O  0.98140905  0.40450132  0.53351064    -0.52700
C1242       C  0.00571107  0.38976317  0.55553223     0.73000
Zr1243     Zr  0.54707014  0.44929633  0.55063114     2.54700
O1244       O  0.60281841  0.39919051  0.55054668    -0.80200
O1245       O  0.54646713  0.44911767  0.61064819    -0.93600
Zr1246     Zr  0.54861863  0.45333111  0.95324549     2.64700
O1247       O  0.60330159  0.40184235  0.95574766    -0.98500
O1248       O  0.54796814  0.45815966  0.89331742    -0.80600
O1249       O  0.56468418  0.46978221  0.50205969    -0.84000
O1250       O  0.52992416  0.42949597  0.50158864    -2.18700
O1251       O  0.91700822  0.01209123  0.56865164    -0.67300
O1252       O  0.91629408  0.47034177  0.53191392    -0.51900
C1253       C  0.90526300  0.98903175  0.55978434     0.71400
O1254       O  0.97843642  0.08336524  0.93633761    -0.60300
O1255       O  0.53246491  0.07562110  0.96621710    -0.52200
C1256       C  0.50865694  0.09157071  0.94420834     0.73200
O1257       O  0.91690071  0.01602369  0.92939144    -0.71600
O1258       O  0.91432762  0.47221246  0.95948953    -0.50300
C1259       C  0.90588509  0.99183618  0.93612990     0.74600
O1260       O  0.97966879  0.07995827  0.56802548    -0.67000
O1261       O  0.52523455  0.07915458  0.53940768    -0.54200
C1262       C  0.50147945  0.09249622  0.56090815     0.73000
Zr1263     Zr  0.96187321  0.03298326  0.55137490     2.77500
O1264       O  0.90855785  0.08534642  0.55526494    -0.97700
O1265       O  0.96901230  0.02587847  0.61109866    -0.78500
Zr1266     Zr  0.96175306  0.03481753  0.95075927     2.70100
O1267       O  0.90670699  0.08578905  0.94972303    -0.79800
O1268       O  0.96949499  0.03656361  0.89149251    -0.98900
Zr1269     Zr  0.53770534  0.03232365  0.50102233     2.21500
Zr1270     Zr  0.96441792  0.45603186  0.99674546     2.11100
O1271       O  0.94064675  0.01538288  0.99812279    -2.47600
O1272       O  0.97733079  0.05356840  0.00111053    -0.79600
O1273       O  0.98552153  0.47262793  0.54791787    -0.71800
O1274       O  0.52501116  0.00943757  0.95094438    -2.32700
O1275       O  0.52024872  0.01071565  0.54941606    -2.28900
O1276       O  0.98360152  0.47513545  0.94818087    -0.73500
H1277       H  0.53941733  0.40432559  0.50155024     0.78500
H1278       H  0.53407277  0.01801417  0.93247256     0.79500
H1279       H  0.91538511  0.02333410  0.99677496     0.81800
H1280       H  0.52909762  0.01748932  0.56914296     0.79400
H1281       H  0.52590125  0.45610450  0.88613195     0.42400
H1282       H  0.97395862  0.01264353  0.88442682     0.41400
H1283       H  0.91037829  0.10135023  0.96617364     0.41100
H1284       H  0.89193128  0.08237935  0.53900044     0.39000
H1285       H  0.97634730  0.00052588  0.61547904     0.42100
H1286       H  0.52216154  0.45240110  0.61607230     0.36900
H1287       H  0.59871937  0.38263063  0.53556191     0.43000
H1288       H  0.59836634  0.38468564  0.96984050     0.39400
H1289       H  0.89903562  0.08294648  0.57700004     0.44400
H1290       H  0.54827894  0.47127480  0.61667166     0.43100
H1291       H  0.60551175  0.39237595  0.93333085     0.43200
H1292       H  0.94594757  0.05115831  0.88219037     0.43600
C1293       C  0.51419204  0.26443805  0.63289053     0.80200
N1294       N  0.51354493  0.26333352  0.66632747    -0.78100
C1295       C  0.51271823  0.23505610  0.68305986     0.82700
N1296       N  0.51164648  0.20784506  0.66581107    -0.78000
C1297       C  0.51213396  0.20847868  0.63225255     0.82800
N1298       N  0.51306795  0.23696859  0.61616664    -0.79700
C1299       C  0.51292795  0.27077161  0.87542283     0.80200
N1300       N  0.51180772  0.27028451  0.84196083    -0.78100
C1301       C  0.51119929  0.24202769  0.82625331     0.82700
N1302       N  0.51186124  0.21403605  0.84454319    -0.78000
C1303       C  0.51239791  0.21435219  0.87808582     0.82800
N1304       N  0.51310425  0.24280178  0.89335547    -0.79700
C1305       C  0.77979468  0.50003087  0.62585147     0.80200
N1306       N  0.78027044  0.50106528  0.65929367    -0.78100
C1307       C  0.75243495  0.50083927  0.67641182     0.82700
N1308       N  0.72413027  0.49968235  0.66011836    -0.78000
C1309       C  0.72380194  0.49790916  0.62682438     0.82800
N1310       N  0.75168022  0.49803182  0.60969444    -0.79700
C1311       C  0.77668285  0.49631201  0.86826590     0.80200
N1312       N  0.74732624  0.49888035  0.88436862    -0.78100
C1313       C  0.71732166  0.50255867  0.86751169     0.82700
N1314       N  0.71696045  0.50446506  0.83399474    -0.78000
C1315       C  0.74613829  0.50216032  0.81767009     0.82800
N1316       N  0.77586100  0.49780145  0.83485856    -0.79700
C1317       C  0.73102223  0.53174990  0.72766084    -0.05800
C1318       C  0.75275124  0.50117919  0.71256377     0.00100
C1319       C  0.77210094  0.47094952  0.73191953    -0.08400
C1320       C  0.76885637  0.47234288  0.76631732    -0.05800
C1321       C  0.74665158  0.50271509  0.78144532     0.00100
C1322       C  0.72783996  0.53317356  0.76210621    -0.08300
C1323       C  0.70539889  0.56712395  0.77783628     0.62000
H1324       H  0.71647416  0.55446949  0.71215088     0.12700
H1325       H  0.78339206  0.44956264  0.78176072     0.12700
C1326       C  0.79510667  0.43719414  0.71615912     0.62300
F1327       F  0.67433178  0.06416025  0.75230028    -0.22900
F1328       F  0.70832047  0.06025642  0.79689126    -0.20200
F1329       F  0.67806648  0.56316982  0.79409311    -0.19900
F1330       F  0.82088481  0.44232427  0.69818293    -0.19900
F1331       F  0.77481480  0.42630443  0.69537227    -0.20300
F1332       F  0.81145591  0.41084271  0.73949064    -0.22900
C1333       C  0.53052149  0.20930234  0.77481771    -0.05800
C1334       C  0.51063860  0.24103400  0.78949947     0.00100
C1335       C  0.97612208  0.27040012  0.76554063    -0.08400
C1336       C  0.97929354  0.26777702  0.73111250    -0.05800
C1337       C  0.51177593  0.23507508  0.71977976     0.00100
C1338       C  0.53178768  0.20576950  0.74029305    -0.08300
C1339       C  0.55539056  0.17124730  0.72610435     0.62000
H1340       H  0.54566462  0.18719312  0.79076650     0.12700
H1341       H  0.96095029  0.28791308  0.71501757     0.12700
C1342       C  0.94570212  0.30048893  0.77976522     0.62300
F1343       F  0.57624198  0.14818112  0.75027115    -0.22900
F1344       F  0.57738476  0.17670120  0.70330618    -0.20200
F1345       F  0.53516471  0.15576922  0.71104269    -0.19900
F1346       F  0.95803866  0.32172173  0.79717174    -0.19900
F1347       F  0.92715508  0.28756559  0.80056095    -0.20300
F1348       F  0.92265992  0.32089723  0.75534964    -0.22900
C1349       C  0.97903289  0.15779606  0.93567221    -0.05800
C1350       C  0.51077448  0.12246269  0.92761312     0.00100
C1351       C  0.53325692  0.11961200  0.90098881    -0.08400
C1352       C  0.53331426  0.15031250  0.88593068    -0.05800
C1353       C  0.51247291  0.18350356  0.89732093     0.00100
C1354       C  0.97735051  0.18862432  0.91934909    -0.08300
C1355       C  0.95063069  0.22354141  0.92988005     0.62000
H1356       H  0.96171710  0.15906422  0.95580080     0.12700
H1357       H  0.54989833  0.14860744  0.86509344     0.12700
C1358       C  0.55702175  0.08424194  0.88868671     0.62300
F1359       F  0.92692475  0.21953204  0.95161967    -0.22900
F1360       F  0.93178557  0.24269111  0.90266963    -0.20200
F1361       F  0.96768978  0.24190853  0.94546289    -0.19900
F1362       F  0.53714026  0.06579068  0.87918783    -0.19900
F1363       F  0.58040213  0.06575598  0.91361071    -0.20300
F1364       F  0.57619334  0.08715891  0.86195000    -0.22900
C1365       C  0.53862210  0.33293757  0.92686757    -0.05800
C1366       C  0.50881963  0.36395368  0.92233500     0.00100
C1367       C  0.97111238  0.36608296  0.89947684    -0.08400
C1368       C  0.97262631  0.33557357  0.88406524    -0.05800
C1369       C  0.51250347  0.30222871  0.89202723     0.00100
C1370       C  0.54052904  0.30164939  0.91285040    -0.08300
C1371       C  0.57206580  0.26811411  0.92058267     0.62000
H1372       H  0.55982715  0.33313636  0.94274968     0.12700
H1373       H  0.95104255  0.33611220  0.86830232     0.12700
C1374       C  0.93973604  0.40009385  0.89286143     0.62300
F1375       F  0.59781574  0.27398155  0.93861568    -0.22900
F1376       F  0.58660681  0.25246494  0.89164842    -0.20200
F1377       F  0.56169055  0.24563241  0.93893945    -0.19900
F1378       F  0.95098184  0.42506110  0.88049732    -0.19900
F1379       F  0.92373776  0.40187860  0.43626086    -0.20300
F1380       F  0.91618601  0.39640879  0.87014526    -0.22900
C1381       C  0.99179054  0.16088585  0.62640919    -0.05800
C1382       C  0.51010080  0.17891345  0.61346992     0.00100
C1383       C  0.52784470  0.16740014  0.58358012    -0.08400
C1384       C  0.52363785  0.13967327  0.56741413    -0.05800
C1385       C  0.50310034  0.12232726  0.58009316     0.00100
C1386       C  0.99019580  0.13122149  0.61164014    -0.08300
C1387       C  0.97462109  0.10930412  0.63104967     0.62000
H1388       H  0.98072368  0.16807193  0.65046577     0.12700
H1389       H  0.53644188  0.13152602  0.54421044     0.12700
C1390       C  0.55191894  0.18340908  0.56884594     0.62300
F1391       F  0.96730368  0.12023770  0.66308652    -0.22900
F1392       F  0.99816387  0.07491381  0.63272687    -0.20200
F1393       F  0.94347377  0.11172656  0.61609265    -0.19900
F1394       F  0.57515205  0.18542250  0.59281799    -0.19900
F1395       F  0.53220229  0.21635482  0.55587669    -0.20300
F1396       F  0.57156460  0.16376967  0.54365055    -0.22900
C1397       C  0.98952319  0.36398514  0.60413266    -0.05800
C1398       C  0.51123327  0.35502552  0.57602057     0.00100
C1399       C  0.50022167  0.32994763  0.56185572    -0.08400
C1400       C  0.50121554  0.30138613  0.58158866    -0.05800
C1401       C  0.51462975  0.29565586  0.61426777     0.00100
C1402       C  0.98939343  0.33589446  0.62388180    -0.08300
C1403       C  0.97107687  0.34368536  0.65671545     0.62000
H1404       H  0.97735337  0.39043579  0.61257184     0.12700
H1405       H  0.49105107  0.28330704  0.57137773     0.12700
C1406       C  0.48901063  0.33195820  0.52574074     0.62300
F1407       F  0.95296340  0.37910988  0.66067365    -0.22900
F1408       F  0.99561908  0.33141810  0.68232776    -0.20200
F1409       F  0.94708502  0.32815297  0.65867677    -0.19900
F1410       F  0.51261128  0.33915213  0.50630123    -0.19900
F1411       F  0.45588859  0.35767357  0.52062984    -0.20300
F1412       F  0.48811731  0.30079781  0.51552695    -0.22900
C1413       C  0.85000261  0.47885643  0.93282520    -0.05800
C1414       C  0.86939127  0.49658195  0.91844336     0.00100
C1415       C  0.85906807  0.51209267  0.88639563    -0.08400
C1416       C  0.82851882  0.51143573  0.87144103    -0.05800
C1417       C  0.80869286  0.49471197  0.88638604     0.00100
C1418       C  0.82036120  0.47683900  0.91712531    -0.08300
C1419       C  0.80253667  0.45499171  0.93324098     0.62000
H1420       H  0.85816572  0.46641944  0.95681253     0.12700
H1421       H  0.81961954  0.52449640  0.84768339     0.12700
C1422       C  0.88104005  0.02805876  0.86750494     0.62300
F1423       F  0.82353651  0.43294247  0.95797098    -0.22900
F1424       F  0.79551753  0.43439113  0.91018323    -0.20200
F1425       F  0.77158419  0.47657322  0.94707025    -0.19900
F1426       F  0.91588455  0.00636057  0.86404425    -0.19900
F1427       F  0.87720616  0.56075839  0.38555680    -0.20300
F1428       F  0.86249900  0.54286003  0.33834618    -0.22900
C1429       C  0.63114066  0.49647390  0.89364315    -0.05800
C1430       C  0.63129462  0.50338397  0.92729421     0.00100
C1431       C  0.65825311  0.51238594  0.94076049    -0.08400
C1432       C  0.68491379  0.51283512  0.91988981    -0.05800
C1433       C  0.68578687  0.50441214  0.88626437     0.00100
C1434       C  0.65772534  0.49668268  0.87269088    -0.08300
C1435       C  0.65542167  0.48776574  0.83676015     0.62000
H1436       H  0.60962141  0.49065768  0.88380955     0.12700
H1437       H  0.70553440  0.51981910  0.93000573     0.12700
C1438       C  0.65796219  0.02189996  0.97305879     0.62300
F1439       F  0.62652091  0.47975072  0.83013771    -0.22900
F1440       F  0.68499671  0.45908445  0.82902916    -0.20200
F1441       F  0.67393166  0.96656902  0.82104811    -0.19900
F1442       F  0.64442404  0.51690056  0.49779019    -0.19900
F1443       F  0.62736694  0.05157034  0.97305786    -0.20300
F1444       F  0.68554219  0.03181905  0.98013516    -0.22900
C1445       C  0.82943380  0.46895592  0.59039804    -0.05800
C1446       C  0.81035896  0.49925922  0.60717400     0.00100
C1447       C  0.82064265  0.52779959  0.60582784    -0.08400
C1448       C  0.84991185  0.52505111  0.58715883    -0.05800
C1449       C  0.87004444  0.49429897  0.57077052     0.00100
C1450       C  0.85970106  0.46540319  0.57283946    -0.08300
C1451       C  0.88076874  0.43039036  0.55802265     0.62000
H1452       H  0.82076167  0.44758475  0.59196446     0.12700
H1453       H  0.85748865  0.54712190  0.58569406     0.12700
C1454       C  0.80059425  0.56107804  0.62387543     0.62300
F1455       F  0.90754918  0.40994031  0.05088470    -0.22900
F1456       F  0.86775374  0.44717888  0.01462260    -0.20200
F1457       F  0.87548143  0.89755044  0.56808875    -0.19900
F1458       F  0.80365310  0.55421718  0.65752456    -0.19900
F1459       F  0.76550780  0.57395922  0.61431031    -0.20300
F1460       F  0.81324267  0.58673692  0.61731341    -0.22900
C1461       C  0.66797852  0.01367700  0.60948327    -0.05800
C1462       C  0.69293482  0.49637690  0.60963898     0.00100
C1463       C  0.69507006  0.46773547  0.59036539    -0.08400
C1464       C  0.66437808  0.46831256  0.57467394    -0.05800
C1465       C  0.63214885  0.49641697  0.57788357     0.00100
C1466       C  0.63680328  0.01689292  0.59280997    -0.08300
C1467       C  0.60446013  0.05050922  0.59510383     0.62000
H1468       H  0.66884329  0.03493761  0.62390338     0.12700
H1469       H  0.66536969  0.44702758  0.55927239     0.12700
C1470       C  0.72932565  0.43638153  0.58707977     0.62300
F1471       F  0.60955369  0.07301833  0.61728200    -0.22900
F1472       F  0.57629517  0.04320366  0.60542266    -0.20200
F1473       F  0.59653469  0.06753450  0.56461802    -0.19900
F1474       F  0.74400020  0.42400278  0.61801047    -0.19900
F1475       F  0.75244530  0.44579504  0.56900696    -0.20300
F1476       F  0.72439885  0.40945273  0.57124687    -0.22900
O1477       O  0.59714561  0.95817251  0.06509292    -0.75300
O1478       O  0.58998720  0.51841064  0.04120358    -0.54200
C1479       C  0.60830584  0.98241280  0.05862005     0.78400
O1480       O  0.52403787  0.90994514  0.42926169    -0.59900
O1481       O  0.97894498  0.90889187  0.46158802    -0.52900
C1482       C  0.00203969  0.89640455  0.43934391     0.70400
O1483       O  0.58894242  0.97498948  0.43404868    -0.74500
O1484       O  0.58663991  0.51963872  0.46668885    -0.55000
C1485       C  0.60025619  0.99812909  0.44331707     0.76500
O1486       O  0.52449328  0.89953869  0.06468188    -0.59600
O1487       O  0.98050259  0.90220531  0.03391966    -0.52700
C1488       C  0.00289658  0.88861098  0.05769054     0.73000
Zr1489     Zr  0.54739328  0.94364522  0.04896575     2.54700
O1490       O  0.59870301  0.88909235  0.04737303    -0.80200
O1491       O  0.54990909  0.94029118  0.10900694    -0.93600
Zr1492     Zr  0.54282052  0.95540433  0.44847561     2.64700
O1493       O  0.59666482  0.90306215  0.45280245    -0.98500
O1494       O  0.54277130  0.95830363  0.38846980    -0.80600
O1495       O  0.56755377  0.96312837  0.00127854    -0.84000
O1496       O  0.52887285  0.92695486  0.99891231    -2.18700
O1497       O  0.91631660  0.50996319  0.06568890    -0.67300
O1498       O  0.91905375  0.96276481  0.03478814    -0.51900
C1499       C  0.90493738  0.48632076  0.05771413     0.71400
O1500       O  0.97959042  0.58478693  0.43489512    -0.60300
O1501       O  0.52061173  0.58289791  0.46504794    -0.52200
C1502       C  0.49590857  0.59724565  0.44329742     0.73200
O1503       O  0.91528478  0.51943045  0.43048839    -0.71600
O1504       O  0.91458217  0.97214562  0.46459214    -0.50300
C1505       C  0.90417938  0.49535597  0.43742628     0.74600
O1506       O  0.97911996  0.57837585  0.06622375    -0.67000
O1507       O  0.52370207  0.57998637  0.04219996    -0.54200
C1508       C  0.49944955  0.59268371  0.06339463     0.73000
Zr1509     Zr  0.95919841  0.53342481  0.04758541     2.77500
O1510       O  0.90621422  0.58646547  0.04187081    -0.97700
O1511       O  0.95376273  0.53543681  0.10721709    -0.78500
Zr1512     Zr  0.96274346  0.53623043  0.44839461     2.70100
O1513       O  0.90971151  0.58934237  0.44453273    -0.79800
O1514       O  0.96977390  0.53459610  0.38892748    -0.98900
Zr1515     Zr  0.53952075  0.53218431  0.00452810     2.21500
Zr1516     Zr  0.96648582  0.95621545  0.49977258     2.11100
O1517       O  0.94233359  0.51780350  0.49662415    -2.47600
O1518       O  0.98017966  0.55461898  0.49804673    -0.79600
O1519       O  0.98337492  0.97070790  0.04953046    -0.71800
O1520       O  0.51992044  0.51292875  0.45144991    -2.32700
O1521       O  0.52305776  0.50994641  0.05316591    -2.28900
O1522       O  0.98248093  0.97723018  0.45041543    -0.73500
H1523       H  0.53632684  0.90190909  0.99859761     0.78500
H1524       H  0.52799552  0.52196889  0.43259453     0.79500
H1525       H  0.91701094  0.52660286  0.49575355     0.81800
H1526       H  0.53114242  0.51767660  0.07277141     0.79400
H1527       H  0.53774603  0.98304658  0.38280952     0.42400
H1528       H  0.97143710  0.51111000  0.38295311     0.41400
H1529       H  0.89309203  0.58488701  0.45941822     0.41100
H1530       H  0.91006861  0.59889071  0.02222042     0.39000
H1531       H  0.97482289  0.51564658  0.11580156     0.42100
H1532       H  0.55038946  0.96280477  0.11574756     0.36900
H1533       H  0.59639045  0.87889567  0.02610032     0.43000
H1534       H  0.58892281  0.88342643  0.45460900     0.39400
H1535       H  0.88757840  0.57857038  0.03482088     0.44400
H1536       H  0.57376581  0.92289799  0.11465427     0.43100
H1537       H  0.60693030  0.90102699  0.43067805     0.43200
H1538       H  0.94676271  0.55077534  0.37970044     0.43600
C1539       C  0.49339787  0.77347184  0.12976735     0.80200
N1540       N  0.49465867  0.77275903  0.16325308    -0.78100
C1541       C  0.49803997  0.74333362  0.18064730     0.82700
N1542       N  0.50003523  0.71458342  0.16420666    -0.78000
C1543       C  0.49922105  0.71482117  0.13066064     0.82800
N1544       N  0.49569120  0.74443239  0.11374162    -0.79700
C1545       C  0.49713094  0.77702208  0.37263838     0.80200
N1546       N  0.49581477  0.77690878  0.33913080    -0.78100
C1547       C  0.49445914  0.74908314  0.32324174     0.82700
N1548       N  0.49443071  0.72116382  0.34114207    -0.78000
C1549       C  0.49482306  0.72121542  0.37469502     0.82800
N1550       N  0.49646080  0.74916562  0.39027930    -0.79700
C1551       C  0.78895155  0.97670427  0.13227102     0.80200
N1552       N  0.78610125  0.97879898  0.16558398    -0.78100
C1553       C  0.75682301  0.97908207  0.18065683     0.82700
N1554       N  0.72985868  0.97814450  0.16206997    -0.78000
C1555       C  0.73229281  0.97559995  0.12899462     0.82800
N1556       N  0.76157566  0.97518442  0.11420183    -0.79700
C1557       C  0.77911379  0.98971540  0.37380289     0.80200
N1558       N  0.74906733  0.99320021  0.38890645    -0.78100
C1559       C  0.72068374  0.99380986  0.37122743     0.82700
N1560       N  0.72296447  0.99106007  0.33803291    -0.78000
C1561       C  0.75260760  0.98855428  0.32249918     0.82800
N1562       N  0.78071909  0.98777632  0.34055027    -0.79700
C1563       C  0.76768057  0.00371431  0.23234088    -0.05800
C1564       C  0.75389366  0.98182911  0.21691659     0.00100
C1565       C  0.73841549  0.96308068  0.23637055    -0.08400
C1566       C  0.73900621  0.96587718  0.27081074    -0.05800
C1567       C  0.75380618  0.98694990  0.28619538     0.00100
C1568       C  0.76769556  0.00692678  0.26670481    -0.08300
C1569       C  0.78202563  0.03197584  0.28173480     0.62000
H1570       H  0.77835948  0.01861455  0.21711167     0.12700
H1571       H  0.72800582  0.95133414  0.28619159     0.12700
C1572       C  0.72172221  0.93984241  0.22138230     0.62300
F1573       F  0.67242355  0.56554247  0.25528062    -0.22900
F1574       F  0.70438097  0.56263446  0.30112678    -0.20200
F1575       F  0.75877721  0.05276105  0.30417931    -0.19900
F1576       F  0.74499475  0.91630410  0.20074449    -0.19900
F1577       F  0.69146530  0.96005492  0.20376914    -0.20300
F1578       F  0.71248572  0.92096068  0.24525993    -0.22900
C1579       C  0.52090763  0.72005876  0.27198911    -0.05800
C1580       C  0.49469552  0.74829528  0.28670252     0.00100
C1581       C  0.97294982  0.77327468  0.26603425    -0.08400
C1582       C  0.97521205  0.76939319  0.23161247    -0.05800
C1583       C  0.49774177  0.74348256  0.21720953     0.00100
C1584       C  0.52307977  0.71720183  0.23745325    -0.08300
C1585       C  0.55281353  0.68679581  0.22284817     0.62000
H1586       H  0.53994140  0.70026978  0.28791237     0.12700
H1587       H  0.95750099  0.78982411  0.21539677     0.12700
C1588       C  0.94457649  0.80534069  0.27992694     0.62300
F1589       F  0.57735182  0.66748656  0.24672715    -0.22900
F1590       F  0.56992425  0.69898461  0.19980484    -0.20200
F1591       F  0.53959733  0.66480458  0.20788648    -0.19900
F1592       F  0.95956560  0.82503955  0.29632895    -0.19900
F1593       F  0.92454407  0.79519648  0.30152889    -0.20300
F1594       F  0.92233901  0.82645343  0.25537373    -0.22900
C1595       C  0.98382486  0.65910352  0.43925784    -0.05800
C1596       C  0.49545090  0.62872329  0.42542300     0.00100
C1597       C  0.51612562  0.62627874  0.39744530    -0.08400
C1598       C  0.51549118  0.65712137  0.38208675    -0.05800
C1599       C  0.49472324  0.69022799  0.39365777     0.00100
C1600       C  0.98178103  0.69038926  0.42369813    -0.08300
C1601       C  0.95809770  0.72493999  0.43773321     0.62000
H1602       H  0.96950534  0.65966334  0.46151637     0.12700
H1603       H  0.53138096  0.65558174  0.36074939     0.12700
C1604       C  0.53829693  0.59111461  0.38365842     0.62300
F1605       F  0.93807119  0.72040860  0.46305312    -0.22900
F1606       F  0.93533744  0.74561295  0.41331201    -0.20200
F1607       F  0.97815592  0.74195292  0.45025453    -0.19900
F1608       F  0.51692283  0.57404215  0.37467720    -0.19900
F1609       F  0.56263365  0.57111770  0.40728160    -0.20300
F1610       F  0.55626894  0.59436592  0.35612845    -0.22900
C1611       C  0.52387232  0.83603137  0.42801015    -0.05800
C1612       C  0.49912105  0.86889974  0.41794684     0.00100
C1613       C  0.97533118  0.86933243  0.39726932    -0.08400
C1614       C  0.97629673  0.83915594  0.38157542    -0.05800
C1615       C  0.49848818  0.80784512  0.38939307     0.00100
C1616       C  0.52394491  0.80521240  0.41433007    -0.08300
C1617       C  0.55152514  0.77030756  0.42611936     0.62000
H1618       H  0.54281608  0.83471240  0.44726349     0.12700
H1619       H  0.95593483  0.84088631  0.36369838     0.12700
C1620       C  0.94665200  0.90450207  0.38831713     0.62300
F1621       F  0.57693163  0.77431918  0.44627627    -0.22900
F1622       F  0.56816662  0.75119420  0.39941728    -0.20200
F1623       F  0.53585651  0.75191498  0.44394397    -0.19900
F1624       F  0.96148213  0.92731174  0.37760762    -0.19900
F1625       F  0.92651136  0.90192650  0.92832500    -0.20300
F1626       F  0.92431400  0.90227475  0.36353634    -0.22900
C1627       C  0.99376174  0.65588911  0.12744822    -0.05800
C1628       C  0.50039742  0.68348981  0.11296098     0.00100
C1629       C  0.51659015  0.67364651  0.08209382    -0.08400
C1630       C  0.51507116  0.64419506  0.06701542    -0.05800
C1631       C  0.49885232  0.62364980  0.08174129     0.00100
C1632       C  0.99313585  0.62601693  0.11226501    -0.08300
C1633       C  0.98019016  0.60210798  0.13187101     0.62000
H1634       H  0.98339337  0.66194977  0.15190133     0.12700
H1635       H  0.52638319  0.63726110  0.04300667     0.12700
C1636       C  0.53605032  0.69333770  0.06498997     0.62300
F1637       F  0.97670647  0.61013237  0.16492547    -0.22900
F1638       F  0.00380420  0.56790250  0.12998191    -0.20200
F1639       F  0.94766993  0.60540356  0.11959305    -0.19900
F1640       F  0.55882587  0.69915566  0.08711960    -0.19900
F1641       F  0.51223232  0.72476274  0.05206223    -0.20300
F1642       F  0.55580432  0.67487126  0.03926981    -0.22900
C1643       C  0.97820976  0.86330497  0.10106836    -0.05800
C1644       C  0.49675815  0.86029546  0.07321041     0.00100
C1645       C  0.51676383  0.82580902  0.06419963    -0.08400
C1646       C  0.51470241  0.79830480  0.08336006    -0.05800
C1647       C  0.49257432  0.80436438  0.11048872     0.00100
C1648       C  0.97582529  0.83524011  0.11936406    -0.08300
C1649       C  0.94882058  0.84283979  0.14614301     0.62000
H1650       H  0.96196243  0.88992029  0.10699350     0.12700
H1651       H  0.53116796  0.77173446  0.07771047     0.12700
C1652       C  0.54002563  0.81831083  0.03440606     0.62300
F1653       F  0.92527205  0.87730427  0.14466141    -0.22900
F1654       F  0.96550532  0.83639872  0.17677390    -0.20200
F1655       F  0.92980590  0.82214063  0.14262503    -0.19900
F1656       F  0.56672948  0.82985153  0.03967509    -0.19900
F1657       F  0.52035648  0.83540327  0.00678072    -0.20300
F1658       F  0.55492394  0.78304091  0.02817395    -0.22900
C1659       C  0.85601055  0.96982612  0.43361132    -0.05800
C1660       C  0.86648697  0.99765732  0.42630707     0.00100
C1661       C  0.84629089  0.02367631  0.40227458    -0.08400
C1662       C  0.81791002  0.01975284  0.38601530    -0.05800
C1663       C  0.80865246  0.99158578  0.39291569     0.00100
C1664       C  0.82764623  0.96614457  0.41705138    -0.08300
C1665       C  0.81878637  0.93460679  0.42426907     0.62000
H1666       H  0.87053448  0.95031727  0.45218754     0.12700
H1667       H  0.80243241  0.03880169  0.36741273     0.12700
C1668       C  0.87798638  0.53166201  0.36925890     0.62300
F1669       F  0.84243282  0.91132178  0.44661347    -0.22900
F1670       F  0.81943766  0.91725204  0.39541522    -0.20200
F1671       F  0.78573645  0.94513655  0.43735919    -0.19900
F1672       F  0.91229454  0.50909172  0.36464742    -0.19900
F1673       F  0.87856469  0.05757549  0.88405049    -0.20300
F1674       F  0.86665310  0.03864016  0.83612030    -0.22900
C1675       C  0.62717296  0.00382271  0.39162544    -0.05800
C1676       C  0.63031146  0.99957540  0.42591988     0.00100
C1677       C  0.66193284  0.99537467  0.44244145    -0.08400
C1678       C  0.69047007  0.99371263  0.42344183    -0.05800
C1679       C  0.68810049  0.99709639  0.38866024     0.00100
C1680       C  0.65514307  0.00363620  0.37244622    -0.08300
C1681       C  0.64844160  0.01089831  0.33549551     0.62000
H1682       H  0.60220188  0.00742374  0.37999376     0.12700
H1683       H  0.71507108  0.98945002  0.43602694     0.12700
C1684       C  0.64649177  0.53631579  0.47043924     0.62300
F1685       F  0.61335095  0.02063916  0.32671362    -0.22900
F1686       F  0.66723229  0.98124401  0.31848805    -0.20200
F1687       F  0.67793399  0.46264332  0.32632466    -0.19900
F1688       F  0.65746067  0.99890413  0.99793188    -0.19900
F1689       F  0.61510086  0.56470314  0.46534329    -0.20300
F1690       F  0.67220213  0.54891160  0.47728038    -0.22900
C1691       C  0.82018041  0.97532625  0.08015852    -0.05800
C1692       C  0.82070348  0.97706819  0.11485792     0.00100
C1693       C  0.85100238  0.97896401  0.13073957    -0.08400
C1694       C  0.87774928  0.98151167  0.11099304    -0.05800
C1695       C  0.87647732  0.98031330  0.07650045     0.00100
C1696       C  0.84770147  0.97610044  0.06081484    -0.08300
C1697       C  0.84587578  0.97224243  0.02377526     0.62000
H1698       H  0.79798766  0.97283364  0.06781340     0.12700
H1699       H  0.90043577  0.98403826  0.12241505     0.12700
C1700       C  0.85609980  0.97796422  0.16802604     0.62300
F1701       F  0.92146549  0.91259866  0.57156925    -0.22900
F1702       F  0.88464739  0.92896692  0.52674669    -0.20200
F1703       F  0.85402036  0.40970280  0.04548975    -0.19900
F1704       F  0.85376663  0.94817436  0.18146752    -0.19900
F1705       F  0.83105038  0.00728152  0.18117002    -0.20300
F1706       F  0.88868478  0.97736504  0.17729105    -0.22900
C1707       C  0.66770749  0.51411308  0.11874375    -0.05800
C1708       C  0.70170632  0.97667156  0.10949184     0.00100
C1709       C  0.70200292  0.94835375  0.09068009    -0.08400
C1710       C  0.67079399  0.95114387  0.07429258    -0.05800
C1711       C  0.63991938  0.98115594  0.07645275     0.00100
C1712       C  0.63628969  0.51746620  0.10239934    -0.08300
C1713       C  0.60208251  0.54721032  0.11034151     0.62000
H1714       H  0.66756733  0.53294239  0.13681987     0.12700
H1715       H  0.67020905  0.92995765  0.05958993     0.12700
C1716       C  0.73458108  0.91494993  0.08917303     0.62300
F1717       F  0.60628240  0.56654469  0.13618769    -0.22900
F1718       F  0.57729992  0.53415454  0.11915191    -0.20200
F1719       F  0.58979187  0.56930262  0.08301404    -0.19900
F1720       F  0.74495428  0.90119133  0.12073952    -0.19900
F1721       F  0.76144865  0.92172727  0.07488837    -0.20300
F1722       F  0.72862838  0.89008255  0.07076118    -0.22900
O1723       O  0.59412153  0.96426757  0.56287217    -0.75300
O1724       O  0.58585337  0.51994646  0.53873221    -0.54200
C1725       C  0.60442972  0.98927983  0.55701475     0.78400
O1726       O  0.52730501  0.90357178  0.93179564    -0.59900
O1727       O  0.98140496  0.90540078  0.96129925    -0.52900
C1728       C  0.00581586  0.89227369  0.94045377     0.70400
O1729       O  0.59691476  0.96426458  0.93934210    -0.74500
O1730       O  0.58864306  0.52223073  0.96902179    -0.55000
C1731       C  0.60847334  0.98780851  0.94694748     0.76500
O1732       O  0.52533532  0.90209392  0.55905551    -0.59600
O1733       O  0.98173930  0.90460070  0.53515992    -0.52700
C1734       C  0.00648619  0.88906310  0.55651598     0.73000
Zr1735     Zr  0.54475199  0.94910261  0.54602259     2.54700
O1736       O  0.59641855  0.89496282  0.54357304    -0.80200
O1737       O  0.54528045  0.94684245  0.60605210    -0.93600
Zr1738     Zr  0.54793212  0.94766494  0.95119308     2.64700
O1739       O  0.60043016  0.89397000  0.95255699    -0.98500
O1740       O  0.54799438  0.95325986  0.89132876    -0.80600
O1741       O  0.56327769  0.97040401  0.49850621    -0.84000
O1742       O  0.52527348  0.93337488  0.49593965    -2.18700
O1743       O  0.91369663  0.51706068  0.56120174    -0.67300
O1744       O  0.91775795  0.96816943  0.53611889    -0.51900
C1745       C  0.90209138  0.49361553  0.55344070     0.71400
O1746       O  0.97991714  0.58400615  0.93648293    -0.60300
O1747       O  0.52554899  0.58272273  0.96761842    -0.52200
C1748       C  0.50108746  0.59743811  0.94573150     0.73200
O1749       O  0.91248496  0.52037723  0.93093092    -0.71600
O1750       O  0.91927497  0.96835587  0.95908510    -0.50300
C1751       C  0.90080364  0.49647434  0.93730752     0.74600
O1752       O  0.97999760  0.58025208  0.56397579    -0.67000
O1753       O  0.52069067  0.58042934  0.53791082    -0.54200
C1754       C  0.49662828  0.59353776  0.55917405     0.73000
Zr1755     Zr  0.96143754  0.53444293  0.54630537     2.77500
O1756       O  0.90929809  0.58850308  0.54475283    -0.97700
O1757       O  0.96242208  0.52901202  0.60618095    -0.78500
Zr1758     Zr  0.96043847  0.53689442  0.94965388     2.70100
O1759       O  0.90854044  0.59103507  0.94556007    -0.79800
O1760       O  0.96845874  0.53507869  0.89034136    -0.98900
Zr1761     Zr  0.53646275  0.53174731  0.50145469     2.21500
Zr1762     Zr  0.96753486  0.95332412  0.99849921     2.11100
O1763       O  0.93929022  0.51820218  0.99742354    -2.47600
O1764       O  0.97868148  0.55371907  0.99987971    -0.79600
O1765       O  0.98679021  0.97122105  0.54999620    -0.71800
O1766       O  0.52200380  0.51501801  0.95402583    -2.32700
O1767       O  0.51975805  0.51099637  0.55083738    -2.28900
O1768       O  0.98722728  0.97291321  0.95034597    -0.73500
H1769       H  0.53351838  0.90829985  0.49501329     0.78500
H1770       H  0.52974765  0.52462236  0.93533963     0.79500
H1771       H  0.91395926  0.52700545  0.99673953     0.81800
H1772       H  0.52760913  0.51943125  0.57013593     0.79400
H1773       H  0.56523048  0.93050190  0.88427847     0.42400
H1774       H  0.97141747  0.51117433  0.88447035     0.41400
H1775       H  0.89247718  0.58809471  0.96207698     0.41100
H1776       H  0.91558041  0.60473274  0.53059102     0.39000
H1777       H  0.96939015  0.50376086  0.61091391     0.42100
H1778       H  0.56517866  0.92478499  0.61226968     0.36900
H1779       H  0.61349707  0.90121163  0.53091410     0.43000
H1780       H  0.59348729  0.87660935  0.96416401     0.39400
H1781       H  0.89176460  0.58337761  0.53137809     0.44400
H1782       H  0.52411591  0.94254434  0.61178392     0.43100
H1783       H  0.60335035  0.88650593  0.92940152     0.43200
H1784       H  0.94532269  0.55037261  0.88068855     0.43600
C1785       C  0.50075646  0.77135173  0.62601691     0.80200
N1786       N  0.49988029  0.77043520  0.65946300    -0.78100
C1787       C  0.50037079  0.74173192  0.67631943     0.82700
N1788       N  0.50074128  0.71403168  0.65909916    -0.78000
C1789       C  0.50134482  0.71441279  0.62557103     0.82800
N1790       N  0.50112712  0.74327438  0.60931915    -0.79700
C1791       C  0.50046230  0.77391077  0.86978358     0.80200
N1792       N  0.49975277  0.77408108  0.83627313    -0.78100
C1793       C  0.49868430  0.74638800  0.81980989     0.82700
N1794       N  0.49870562  0.71815519  0.83737597    -0.78000
C1795       C  0.49871680  0.71806696  0.87089008     0.82800
N1796       N  0.49962166  0.74595779  0.88691452    -0.79700
C1797       C  0.78480768  0.98664446  0.62889078     0.80200
N1798       N  0.78485170  0.98454646  0.66225550    -0.78100
C1799       C  0.75744538  0.98160545  0.67794621     0.82700
N1800       N  0.72959204  0.98124236  0.66004704    -0.78000
C1801       C  0.72976706  0.98240366  0.62657978     0.82800
N1802       N  0.75741687  0.98514884  0.61101538    -0.79700
C1803       C  0.78273318  0.98774734  0.86918505     0.80200
N1804       N  0.75474371  0.98790612  0.88617422    -0.78100
C1805       C  0.72578534  0.98772650  0.87017132     0.82700
N1806       N  0.72464544  0.98842811  0.83671946    -0.78000
C1807       C  0.75226271  0.98879957  0.81942035     0.82800
N1808       N  0.78135222  0.98813316  0.83574972    -0.79700
C1809       C  0.72740905  0.00748632  0.72845113    -0.05800
C1810       C  0.75649586  0.98191537  0.71421332     0.00100
C1811       C  0.78387434  0.95825231  0.73463035    -0.08400
C1812       C  0.78098280  0.96120573  0.76896746    -0.05800
C1813       C  0.75212472  0.98710692  0.78320064     0.00100
C1814       C  0.72503831  0.01108402  0.76277786    -0.08300
C1815       C  0.69501293  0.04159517  0.77686850     0.62000
H1816       H  0.70699548  0.02543128  0.71227276     0.12700
H1817       H  0.80153868  0.94340474  0.78511967     0.12700
C1818       C  0.81580654  0.92983628  0.72049195     0.62300
F1819       F  0.69119386  0.59408270  0.75463922    -0.22900
F1820       F  0.72558175  0.57646603  0.80014901    -0.20200
F1821       F  0.67376911  0.02972134  0.79505783    -0.19900
F1822       F  0.83659706  0.94459401  0.70532290    -0.19900
F1823       F  0.80535153  0.91130366  0.69774133    -0.20300
F1824       F  0.83607193  0.90646907  0.74476635    -0.22900
C1825       C  0.51765138  0.71456700  0.76793071    -0.05800
C1826       C  0.49850196  0.74621227  0.78302059     0.00100
C1827       C  0.98240972  0.77169338  0.76698926    -0.08400
C1828       C  0.98286550  0.76873155  0.73245027    -0.05800
C1829       C  0.49974675  0.74146555  0.71313110     0.00100
C1830       C  0.51850780  0.71143552  0.73337950    -0.08300
C1831       C  0.53975073  0.67620167  0.71902069     0.62000
H1832       H  0.53211828  0.69201444  0.78363717     0.12700
H1833       H  0.96792428  0.79132128  0.71697559     0.12700
C1834       C  0.95956808  0.80622484  0.78171535     0.62300
F1835       F  0.55926863  0.65203629  0.74304075    -0.22900
F1836       F  0.56284493  0.67954187  0.69622181    -0.20200
F1837       F  0.51738513  0.66314148  0.70402280    -0.19900
F1838       F  0.98044258  0.82180303  0.79534956    -0.19900
F1839       F  0.93873687  0.80076334  0.80574215    -0.20300
F1840       F  0.93755847  0.82926994  0.75817376    -0.22900
C1841       C  0.98721340  0.65660858  0.93880705    -0.05800
C1842       C  0.50159311  0.62806212  0.92681688     0.00100
C1843       C  0.53029643  0.62630212  0.90713964    -0.08400
C1844       C  0.52803345  0.65615173  0.88869643    -0.05800
C1845       C  0.49853536  0.68751969  0.88992753     0.00100
C1846       C  0.98721838  0.68698986  0.92295883    -0.08300
C1847       C  0.96326285  0.72238005  0.93519438     0.62000
H1848       H  0.97125596  0.65843627  0.96016068     0.12700
H1849       H  0.54965795  0.65549150  0.87363447     0.12700
C1850       C  0.56303058  0.59307506  0.90535680     0.62300
F1851       F  0.94137979  0.71944934  0.95950495    -0.22900
F1852       F  0.94232433  0.74233716  0.90936125    -0.20200
F1853       F  0.98307773  0.73932513  0.94838573    -0.19900
F1854       F  0.55398377  0.56560872  0.89694651    -0.19900
F1855       F  0.58040615  0.58591939  0.93563185    -0.20300
F1856       F  0.58599467  0.59590436  0.88210572    -0.22900
C1857       C  0.52749457  0.83098224  0.92700206    -0.05800
C1858       C  0.50102515  0.86382315  0.91983479     0.00100
C1859       C  0.97702304  0.86260233  0.90255127    -0.08400
C1860       C  0.97946772  0.83220949  0.88631644    -0.05800
C1861       C  0.50161955  0.80422810  0.88742742     0.00100
C1862       C  0.52821443  0.80089949  0.91132401    -0.08300
C1863       C  0.55793388  0.76602581  0.91943808     0.62000
H1864       H  0.54750805  0.82908429  0.94534233     0.12700
H1865       H  0.95743187  0.83201838  0.87167228     0.12700
C1866       C  0.94364860  0.89529480  0.89873075     0.62300
F1867       F  0.58320726  0.76952341  0.94012834    -0.22900
F1868       F  0.57400260  0.75120816  0.89072479    -0.20200
F1869       F  0.54504557  0.74386254  0.93507600    -0.19900
F1870       F  0.95168084  0.92339976  0.88940637    -0.19900
F1871       F  0.92698146  0.91769331  0.41568256    -0.20300
F1872       F  0.92086931  0.89187446  0.87500606    -0.22900
C1873       C  0.99104437  0.65943066  0.62437735    -0.05800
C1874       C  0.50032737  0.68408432  0.60735380     0.00100
C1875       C  0.51577489  0.67379996  0.57621451    -0.08400
C1876       C  0.51291006  0.64474767  0.56145800    -0.05800
C1877       C  0.49636847  0.62480750  0.57680743     0.00100
C1878       C  0.99027954  0.62970290  0.60916107    -0.08300
C1879       C  0.97380480  0.60792283  0.62758096     0.62000
H1880       H  0.97836206  0.66699793  0.64772994     0.12700
H1881       H  0.52379362  0.63735805  0.53736280     0.12700
C1882       C  0.53619790  0.69224635  0.55864640     0.62300
F1883       F  0.96658236  0.61803889  0.65986211    -0.22900
F1884       F  0.99659767  0.57324429  0.62863617    -0.20200
F1885       F  0.94248728  0.61159534  0.61212818    -0.19900
F1886       F  0.56133570  0.69507764  0.57992286    -0.19900
F1887       F  0.51358654  0.72500819  0.54750291    -0.20300
F1888       F  0.55338491  0.67426205  0.53154195    -0.22900
C1889       C  0.01833739  0.85203966  0.60748589    -0.05800
C1890       C  0.50060404  0.86021297  0.56844084     0.00100
C1891       C  0.48802751  0.83607485  0.55460419    -0.08400
C1892       C  0.48740402  0.80843354  0.57480721    -0.05800
C1893       C  0.50091494  0.80260310  0.60745533     0.00100
C1894       C  0.01877186  0.82340901  0.62684598    -0.08300
C1895       C  0.03418208  0.81855617  0.66178288     0.62000
H1896       H  0.02723865  0.87079976  0.61827982     0.12700
H1897       H  0.47651024  0.79078529  0.56490772     0.12700
C1898       C  0.47768514  0.83759040  0.51829730     0.62300
F1899       F  0.05015601  0.84151729  0.66816414    -0.22900
F1900       F  0.05941988  0.78513896  0.66644180    -0.20200
F1901       F  0.00787405  0.82444539  0.68429525    -0.19900
F1902       F  0.50438431  0.83946839  0.49938769    -0.19900
F1903       F  0.44712982  0.86627033  0.51126152    -0.20300
F1904       F  0.47209561  0.80825323  0.50924106    -0.22900
C1905       C  0.85779947  0.97090048  0.93109869    -0.05800
C1906       C  0.87498327  0.99100766  0.91723582     0.00100
C1907       C  0.86233755  0.00869660  0.88631892    -0.08400
C1908       C  0.83178994  0.00724077  0.87202626    -0.05800
C1909       C  0.81433361  0.98789132  0.88658908     0.00100
C1910       C  0.82819175  0.96838422  0.91616776    -0.08300
C1911       C  0.81303399  0.94383581  0.93154876     0.62000
H1912       H  0.86774586  0.95680528  0.95411898     0.12700
H1913       H  0.82106158  0.02152252  0.84912751     0.12700
C1914       C  0.88040577  0.52819562  0.86708584     0.62300
F1915       F  0.83477980  0.92273120  0.95640355    -0.22900
F1916       F  0.80892325  0.92225394  0.90782847    -0.20200
F1917       F  0.78098875  0.96278857  0.94513033    -0.19900
F1918       F  0.91477793  0.50449229  0.86582695    -0.19900
F1919       F  0.85306833  0.07440752  0.42098161    -0.20300
F1920       F  0.82930427  0.07780205  0.37075910    -0.22900
C1921       C  0.64715811  0.96983792  0.89913225    -0.05800
C1922       C  0.63968665  0.98773732  0.92894182     0.00100
C1923       C  0.66187988  0.00450521  0.93989316    -0.08400
C1924       C  0.68919651  0.00418297  0.91949484    -0.05800
C1925       C  0.69594625  0.98690711  0.88943070     0.00100
C1926       C  0.67535000  0.96825130  0.87960394    -0.08300
C1927       C  0.68328906  0.94569085  0.84936612     0.62000
H1928       H  0.63036757  0.95706806  0.89072833     0.12700
H1929       H  0.70558709  0.01778735  0.92689516     0.12700
C1930       C  0.65964872  0.52048522  0.97703466     0.62300
F1931       F  0.66488792  0.92415597  0.84899453    -0.22900
F1932       F  0.71864600  0.92451647  0.84910165    -0.20200
F1933       F  0.65223528  0.51594098  0.81650106    -0.19900
F1934       F  0.65736598  0.96417935  0.49069599    -0.19900
F1935       F  0.63227174  0.55152208  0.98371230    -0.20300
F1936       F  0.69064086  0.52381109  0.98574294    -0.22900
C1937       C  0.83495659  0.95943518  0.59357754    -0.05800
C1938       C  0.81543478  0.98807138  0.61209410     0.00100
C1939       C  0.82574271  0.01652769  0.61456360    -0.08400
C1940       C  0.85493078  0.01582943  0.59683922    -0.05800
C1941       C  0.87481449  0.98710820  0.57786014     0.00100
C1942       C  0.86518400  0.95771799  0.57717621    -0.08300
C1943       C  0.88690333  0.92392016  0.56064653     0.62000
H1944       H  0.82652010  0.93789599  0.59266244     0.12700
H1945       H  0.86235657  0.03799178  0.59778504     0.12700
C1946       C  0.80565852  0.04769145  0.63529996     0.62300
F1947       F  0.87123242  0.94054561  0.01532851    -0.22900
F1948       F  0.85137966  0.99907557  0.00743742    -0.20200
F1949       F  0.86778545  0.40538832  0.56639734    -0.19900
F1950       F  0.80798863  0.03732994  0.66814944    -0.19900
F1951       F  0.77075983  0.06191907  0.62510175    -0.20300
F1952       F  0.81882757  0.07349225  0.63268845    -0.22900
C1953       C  0.66035001  0.52368145  0.61416815    -0.05800
C1954       C  0.69868688  0.98359386  0.60755742     0.00100
C1955       C  0.69871026  0.95539564  0.58872913    -0.08400
C1956       C  0.66712277  0.95790262  0.57314977    -0.05800
C1957       C  0.63638635  0.98826005  0.57468032     0.00100
C1958       C  0.62965216  0.52429389  0.59841733    -0.08300
C1959       C  0.59475037  0.55419500  0.60396371     0.62000
H1960       H  0.65928466  0.54486464  0.62974431     0.12700
H1961       H  0.66636054  0.93646807  0.55894712     0.12700
C1962       C  0.73194847  0.92300694  0.58515254     0.62300
F1963       F  0.59742926  0.57592572  0.62827317    -0.22900
F1964       F  0.57008445  0.54128322  0.61356289    -0.20200
F1965       F  0.58325009  0.57390731  0.57512862    -0.19900
F1966       F  0.74521926  0.90859198  0.61594333    -0.19900
F1967       F  0.75670721  0.93179376  0.56908941    -0.20300
F1968       F  0.72595287  0.89795534  0.56707308    -0.22900
loop_ 
_geom_bond_atom_site_label_1 
_geom_bond_atom_site_label_2 
_geom_bond_distance 
_geom_bond_site_symmetry_2 
_ccdc_geom_bond_type 
O1          Zr13   2.444       .  S
O1            C3   1.288       .  A
O2          Zr39   2.418       .  S
O2          C495   1.285   1_545  A
C3          O494   1.283       .  A
C3          C235   1.469       .  S
O4          Zr16   2.459       .  S
O4          C990   1.291       .  A
O5          Zr40   2.428       .  S
O5            C6   1.286       .  A
C6          O988   1.286       .  A
C6         C1120   1.472       .  S
O7          Zr16   2.438       .  S
O7            C9   1.289       .  A
O8         Zr285   2.408       .  S
O8          C501   1.281   1_545  A
C9          O500   1.286       .  A
C9          C200   1.497       .  S
O10         Zr13   2.446       .  S
O10         C996   1.288   1_455  A
O11        Zr286   2.420   1_554  S
O11          C12   1.284       .  A
C12         O994   1.290       .  A
C12        C1152   1.490       .  S
Zr13         O14   2.434       .  S
Zr13         O15   2.437       .  S
Zr13         O19   2.369       .  S
Zr13         O20   2.375   1_554  S
Zr13       O1027   2.365   1_455  S
Zr13        O537   2.378       .  S
O14          H57   0.990       .  S
O15          H56   0.990       .  S
O15          H60   0.990       .  S
Zr16         O17   2.436       .  S
Zr16         O18   2.434       .  S
Zr16        O266   2.365       .  S
Zr16        O265   2.376       .  S
Zr16        O536   2.378       .  S
Zr16       O1030   2.371   1_455  S
O17          H58   0.990       .  S
O17          H61   0.990       .  S
O18          H51   0.990       .  S
O19        Zr262   2.371   1_554  S
O19        Zr531   2.379       .  S
O20        Zr262   2.368       .  S
O20       Zr1270   2.380   1_455  S
O20          H47   0.967       .  S
O21         Zr33   2.431       .  S
O21          C23   1.286   1_545  A
O22        Zr286   2.420   1_554  S
O22         C515   1.285       .  A
C23         O514   1.286       .  A
C23         C711   1.490       .  S
O24         Zr36   2.429       .  S
O24        C1010   1.285       .  A
O25        Zr285   2.431       .  S
O25          C26   1.287   1_455  A
C26        O1008   1.289       .  A
C26         C120   1.478   1_655  S
O27         Zr36   2.423       .  S
O27          C29   1.283       .  A
O28         Zr40   2.420       .  S
O28         C521   1.288       .  A
C29         O520   1.288   1_545  A
C29         C676   1.479       .  S
O30         Zr33   2.435       .  S
O30        C1016   1.284       .  A
O31         Zr39   2.429       .  S
O31          C32   1.289   1_455  A
C32        O1014   1.286       .  A
C32         C155   1.488       .  S
Zr33         O34   2.437       .  S
Zr33         O35   2.433       .  S
Zr33        O287   2.372   1_554  S
Zr33        O288   2.372   1_554  S
Zr33       O1029   2.371       .  S
Zr33        O535   2.373   1_545  S
O34          H54   0.990       .  S
O34          H59   0.990       .  S
O35          H55   0.990       .  S
Zr36         O37   2.433       .  S
Zr36         O38   2.435       .  S
Zr36         O42   2.373       .  S
Zr36         O41   2.373       .  S
Zr36        O538   2.375   1_545  S
Zr36       O1028   2.356       .  S
O37          H53   0.990       .  S
O38          H52   0.990       .  S
O38          H62   0.989       .  S
Zr39        O254   2.429   1_554  S
Zr39        O271   2.436   1_554  S
Zr39         O45   2.388       .  S
Zr39        O511   2.387   1_545  S
Zr39       O1272   2.380   1_455  S
Zr39        O290   2.379   1_554  S
Zr40        O257   2.430       .  S
Zr40        O268   2.414       .  S
Zr40         O46   2.377       .  S
Zr40       O1250   2.377       .  S
Zr40        O533   2.389       .  S
Zr40        O289   2.381       .  S
O41        Zr279   2.367       .  S
O41        Zr532   2.382   1_545  S
O41          H49   0.966       .  S
O42        Zr279   2.373       .  S
O42       Zr1269   2.374       .  S
O43        Zr997   2.374       .  S
O43        Zr525   2.372       .  S
O43        Zr286   2.379   1_554  S
O44        Zr508   2.370   1_545  S
O44       Zr1020   2.360   1_455  S
O44        Zr285   2.378       .  S
O44          H48   0.966       .  S
O45        Zr505   2.376   1_545  S
O45       Zr1017   2.372   1_455  S
O45          H50   0.967       .  S
O46       Zr1000   2.365       .  S
O46        Zr528   2.375       .  S
C63         C171   1.483       .  S
C63          N64   1.357       .  A
C63          N68   1.357       .  A
N64          C65   1.359       .  A
C65         C107   1.484       .  S
C65          N66   1.360       .  A
N66          C67   1.363       .  A
C67         C152   1.498       .  S
C67          N68   1.355       .  A
C69         C139   1.479   1_655  S
C69          N70   1.360       .  A
C69          N74   1.357       .  A
N70          C71   1.361       .  A
C71         C104   1.485       .  S
C71          N72   1.360       .  A
N72          C73   1.361       .  A
C73         C123   1.486       .  S
C73          N74   1.358       .  A
C75         C216   1.474       .  S
C75          N76   1.358       .  A
C75          N80   1.356       .  A
N76          C77   1.356       .  A
C77          C88   1.468       .  S
C77          N78   1.355       .  A
N78          C79   1.355       .  A
C79         C232   1.469       .  S
C79          N80   1.356       .  A
C81         C187   1.481       .  S
C81          N82   1.354       .  A
C81          N86   1.357       .  A
N82          C83   1.357       .  A
C83         C203   1.485       .  S
C83          N84   1.357       .  A
N84          C85   1.356       .  A
C85          C91   1.471       .  S
C85          N86   1.355       .  A
C87          C88   1.401       .  A
C87          C92   1.404       .  A
C87          H94   1.084       .  S
C88          C89   1.414       .  A
C89          C90   1.404       .  A
C89          C96   1.519       .  S
C90          C91   1.403       .  A
C90          H95   1.083       .  S
C91          C92   1.416       .  A
C92          C93   1.519       .  S
C93          F99   1.381       .  S
C93         F589   1.385       .  S
C93         F590   1.383       .  S
C96         F100   1.382       .  S
C96         F101   1.384       .  S
C96         F102   1.385       .  S
F97         C585   1.385       .  S
F98         C585   1.384       .  S
C103        C104   1.405   1_455  A
C103        C108   1.410       .  A
C103        H110   1.083       .  S
C104       C1089   1.418       .  A
C105        C106   1.409       .  A
C105       C1088   1.421       .  A
C105        C112   1.520       .  S
C106       C1091   1.407       .  A
C106        H111   1.083       .  S
C107        C108   1.419   1_655  A
C107       C1090   1.404       .  A
C108        C109   1.519       .  S
C109        F113   1.385       .  S
C109        F114   1.384       .  S
C109        F115   1.382       .  S
C112        F116   1.383       .  S
C112        F117   1.383       .  S
C112        F118   1.385       .  S
C119        C124   1.406       .  A
C119       C1104   1.399       .  A
C119        H126   1.083       .  S
C120        C121   1.415       .  A
C120       C1103   1.400   1_455  A
C121        C122   1.407       .  A
C121        C128   1.517       .  S
C122        C123   1.404   1_455  A
C122        H127   1.083       .  S
C123       C1108   1.422       .  A
C124       C1107   1.419       .  A
C124        C125   1.518       .  S
C125        F129   1.385       .  S
C125        F130   1.384       .  S
C125        F131   1.382       .  S
C128        F132   1.383       .  S
C128        F133   1.380       .  S
C128        F134   1.385       .  S
C135        C136   1.406       .  A
C135        C140   1.410       .  A
C135        H142   1.083       .  S
C136        C990   1.488       .  S
C136       C1121   1.422   1_455  A
C137        C138   1.405       .  A
C137       C1120   1.412       .  A
C137        C144   1.514       .  S
C138       C1123   1.403       .  A
C138        H143   1.083       .  S
C139        C140   1.416       .  A
C139       C1122   1.400   1_455  A
C140        C141   1.518       .  S
C141        F145   1.385       .  S
C141        F146   1.383       .  S
C141        F147   1.383       .  S
C144        F148   1.383       .  S
C144        F150   1.384       .  S
C144        F395   1.380       .  S
F149        C390   1.382       .  S
C151        C156   1.407       .  A
C151       C1136   1.404       .  A
C151        H158   1.083       .  S
C152        C153   1.428   1_655  A
C152       C1135   1.406       .  A
C153        C154   1.409       .  A
C153        C160   1.521       .  S
C154        C155   1.402   1_455  A
C154        H159   1.083       .  S
C155       C1140   1.420       .  A
C156       C1139   1.425       .  A
C156        C157   1.521       .  S
C157        F161   1.385       .  S
C157        F162   1.383       .  S
C157        F163   1.383       .  S
C160        F164   1.383       .  S
C160        F165   1.383   1_455  S
C160        F166   1.385       .  S
C167        C172   1.405       .  A
C167       C1152   1.404       .  A
C167        H174   1.083       .  S
C168        C996   1.465       .  S
C168        C169   1.409   1_655  A
C168       C1151   1.400       .  A
C169        C170   1.403       .  A
C169        C176   1.519       .  S
C170        C171   1.407   1_455  A
C170        H175   1.080       .  S
C171       C1156   1.421       .  A
C172       C1155   1.424       .  A
C172        C173   1.523       .  S
C173        F177   1.385       .  S
C173        F178   1.384       .  S
C173        F179   1.382       .  S
C176        F180   1.383       .  S
C176        F181   1.383       .  S
C176        F182   1.385       .  S
C183        C184   1.407       .  A
C183        C188   1.406       .  A
C183        H190   1.083       .  S
C184        C521   1.488       .  S
C184        C185   1.423       .  A
C185        C186   1.401       .  A
C185        C684   1.519       .  S
C186        C187   1.401       .  A
C186        H191   1.083       .  S
C187        C188   1.419       .  A
C188        C189   1.520       .  S
C189        F193   1.385       .  S
C189        F194   1.384       .  S
C189        F195   1.382       .  S
C192        C677   1.520       .  S
C192        F196   1.382       .  S
C192        F935   1.383       .  S
C192        F936   1.385       .  S
F197        C930   1.383       .  S
F198        C930   1.385       .  S
C199        C200   1.411       .  A
C199        C204   1.406       .  A
C199        H206   1.082       .  S
C200        C201   1.424       .  A
C201        C202   1.407       .  A
C201        C700   1.521       .  S
C202        C203   1.404       .  A
C202        H207   1.083       .  S
C203        C204   1.418       .  A
C204        C205   1.523       .  S
C205        F209   1.385       .  S
C205        F210   1.384       .  S
C205        F703   1.382       .  S
C208        C693   1.524       .  S
C208        F213   1.383       .  S
C208        F214   1.385       .  S
C208        F950   1.383       .  S
F211        C697   1.382       .  S
F212        C946   1.383       .  S
C215        C216   1.403       .  A
C215        C220   1.405       .  A
C215        H222   1.083       .  S
C216        C217   1.418       .  A
C217        C218   1.406       .  A
C217        C224   1.520       .  S
C218        C219   1.400       .  A
C218        H223   1.084       .  S
C219        C515   1.468       .  S
C219        C220   1.413       .  A
C220        C221   1.517       .  S
C221        F471   1.384       .  S
C221        F472   1.381       .  S
C221        F719   1.384       .  S
C224        F228   1.384       .  S
C224        F229   1.382       .  S
C224        F230   1.385       .  S
F225        C467   1.383       .  S
F226        C467   1.380       .  S
F227        C713   1.385       .  S
C231        C236   1.404       .  A
C231        C724   1.406   1_545  A
C231        H238   1.083       .  S
C232        C233   1.416       .  A
C232        C723   1.401       .  A
C233        C234   1.407       .  A
C233        C240   1.519       .  S
C234        C235   1.402       .  A
C234        H239   1.083       .  S
C235        C728   1.414       .  A
C236        C727   1.411   1_545  A
C236        C237   1.518       .  S
C237        F241   1.384       .  S
C237        F242   1.383       .  S
C237        F243   1.382       .  S
C240        F244   1.384       .  S
C240        F245   1.382       .  S
C240        F246   1.384       .  S
O247       Zr259   2.438       .  S
O247        C249   1.288       .  A
O248       Zr285   2.414       .  S
O248        C741   1.284   1_545  A
C249        O740   1.283       .  A
C249        C481   1.475       .  S
O250       Zr262   2.443       .  S
O250       C1236   1.288       .  A
O251       Zr286   2.420       .  S
O251        C252   1.285       .  A
C252       O1234   1.289       .  A
C252       C1366   1.479       .  S
O253       Zr262   2.430       .  S
O253        C255   1.287       .  A
O254        C747   1.286   1_545  A
C255        O746   1.287       .  A
C255        C446   1.496       .  S
O256       Zr259   2.436       .  S
O256       C1242   1.286       .  A
O257        C258   1.287       .  A
C258       O1240   1.289       .  A
C258       C1398   1.493       .  S
Zr259       O260   2.434       .  S
Zr259       O261   2.435       .  S
Zr259       O265   2.372       .  S
Zr259       O266   2.373       .  S
Zr259      O1273   2.371   1_455  S
Zr259       O783   2.368       .  S
O260        H303   0.990       .  S
O261        H302   0.990       .  S
O261        H306   0.990       .  S
Zr262       O263   2.436       .  S
Zr262       O264   2.434       .  S
Zr262       O782   2.372       .  S
Zr262      O1276   2.370   1_455  S
O263        H304   0.990       .  S
O263        H307   0.990       .  S
O264        H297   0.990       .  S
O265       Zr777   2.386       .  S
O266      Zr1024   2.382   1_455  S
O266        H293   0.966       .  S
O267       Zr279   2.443       .  S
O267        C269   1.289   1_545  A
O268        C761   1.284       .  A
C269        O760   1.283       .  A
C269        C957   1.488       .  S
O270       Zr282   2.457       .  S
O270       C1256   1.290       .  A
O271        C272   1.288       .  A
C272       O1254   1.287   1_455  A
C272        C366   1.477       .  S
O273       Zr282   2.453       .  S
O273        C275   1.288   1_545  A
O274       Zr286   2.414       .  S
O274        C767   1.286       .  A
C275        O766   1.283       .  A
C275        C922   1.497       .  S
O276       Zr279   2.450       .  S
O276       C1262   1.287       .  A
O277       Zr285   2.425       .  S
O277        C278   1.287       .  A
C278       O1260   1.287   1_455  A
C278        C401   1.501       .  S
Zr279       O280   2.435       .  S
Zr279       O281   2.432       .  S
Zr279      O1275   2.371       .  S
Zr279       O781   2.374   1_545  S
O280        H300   0.990       .  S
O280        H305   0.990       .  S
O281        H301   0.990       .  S
Zr282       O283   2.434       .  S
Zr282       O284   2.433       .  S
Zr282       O288   2.375       .  S
Zr282       O287   2.375       .  S
Zr282       O784   2.373   1_545  S
Zr282      O1274   2.365       .  S
O283        H299   0.990       .  S
O284        H298   0.990       .  S
O284        H308   0.990       .  S
Zr285       O757   2.384   1_545  S
Zr285      O1026   2.375   1_455  S
Zr285       O291   2.382       .  S
Zr286      O1004   2.378   1_556  S
Zr286       O779   2.382   1_556  S
Zr286       O292   2.377       .  S
O287       Zr778   2.382   1_545  S
O287        H295   0.966       .  S
O288      Zr1023   2.374   1_556  S
O289      Zr1243   2.373       .  S
O289       Zr771   2.373       .  S
O290       Zr754   2.376   1_545  S
O290      Zr1266   2.365   1_455  S
O290        H294   0.966       .  S
O291       Zr751   2.377   1_545  S
O291      Zr1263   2.363   1_455  S
O291        H296   0.967       .  S
O292      Zr1246   2.371       .  S
O292       Zr774   2.377       .  S
C309        C417   1.492       .  S
C309        N310   1.356       .  A
C309        N314   1.361       .  A
N310        C311   1.356       .  A
C311        C353   1.482       .  S
C311        N312   1.358       .  A
N312        C313   1.362       .  A
C313        C398   1.498       .  S
C313        N314   1.360       .  A
C315        C385   1.475       .  S
C315        N316   1.357       .  A
C315        N320   1.357       .  A
N316        C317   1.358   1_455  A
C317        C350   1.481   1_655  S
C317        N318   1.360   1_655  A
N318        C319   1.360       .  A
C319        C369   1.484       .  S
C319        N320   1.358       .  A
C321        C462   1.469       .  S
C321        N322   1.358       .  A
C321        N326   1.355       .  A
N322        C323   1.358       .  A
C323        C334   1.475       .  S
C323        N324   1.357       .  A
N324        C325   1.355       .  A
C325        C478   1.464       .  S
C325        N326   1.355       .  A
C327        C433   1.484       .  S
C327        N328   1.357       .  A
C327        N332   1.356       .  A
N328        C329   1.360       .  A
C329        C449   1.491       .  S
C329        N330   1.358       .  A
N330        C331   1.358       .  A
C331        C337   1.474       .  S
C331        N332   1.355       .  A
C333        C334   1.403       .  A
C333        C338   1.405       .  A
C333        H340   1.083       .  S
C334        C335   1.416       .  A
C335        C336   1.406       .  A
C335        C342   1.519       .  S
C336        C337   1.403       .  A
C336        H341   1.083       .  S
C337        C338   1.415       .  A
C338        C339   1.519       .  S
C339        F835   1.385       .  S
C339        F836   1.384       .  S
C339        F345   1.381       .  S
C342        F346   1.382       .  S
C342        F347   1.383       .  S
C342        F348   1.385       .  S
F343        C831   1.385       .  S
F344        C831   1.384       .  S
C349        C350   1.404       .  A
C349        C354   1.408       .  A
C349        H356   1.083       .  S
C350       C1335   1.418   1_455  A
C351       C1334   1.421       .  A
C351        C352   1.408       .  A
C351        C358   1.520       .  S
C352       C1337   1.405       .  A
C352        H357   1.083       .  S
C353       C1336   1.404   1_455  A
C353        C354   1.417       .  A
C354        C355   1.519       .  S
C355        F359   1.384       .  S
C355        F360   1.384       .  S
C355        F361   1.382       .  S
C358        F362   1.383       .  S
C358        F363   1.384       .  S
C358        F364   1.385       .  S
C365       C1350   1.399       .  A
C365        C370   1.409       .  A
C365        H372   1.083       .  S
C366       C1349   1.401   1_455  A
C366        C367   1.415       .  A
C367        C368   1.407       .  A
C367        C374   1.517       .  S
C368        C369   1.404       .  A
C368        H373   1.083       .  S
C369       C1354   1.421   1_455  A
C370       C1353   1.424       .  A
C370        C371   1.519       .  S
C371        F375   1.385       .  S
C371        F376   1.383       .  S
C371        F377   1.383       .  S
C374        F378   1.383       .  S
C374        F379   1.381       .  S
C374        F380   1.385       .  S
C381        C382   1.403   1_455  A
C381        C386   1.406       .  A
C381        H388   1.084       .  S
C382       C1236   1.478   1_655  S
C382       C1367   1.418       .  A
C383       C1366   1.417       .  A
C383        C384   1.409       .  A
C383        C390   1.519       .  S
C384       C1369   1.404       .  A
C384        H389   1.083       .  S
C385       C1368   1.402   1_455  A
C385        C386   1.415       .  A
C386        C387   1.518       .  S
C387        F391   1.385       .  S
C387        F392   1.384       .  S
C387        F393   1.382       .  S
C390        F394   1.384       .  S
C390        F396   1.384       .  S
C397       C1382   1.403       .  A
C397        C402   1.410       .  A
C397        H404   1.083       .  S
C398       C1381   1.406   1_455  A
C398        C399   1.423       .  A
C399        C400   1.410       .  A
C399        C406   1.520       .  S
C400        C401   1.408       .  A
C400        H405   1.082       .  S
C401       C1386   1.425   1_455  A
C402       C1385   1.427       .  A
C402        C403   1.520       .  S
C403        F407   1.385       .  S
C403        F408   1.382       .  S
C403        F409   1.383       .  S
C406        F410   1.384       .  S
C406        F411   1.382       .  S
C406        F412   1.385       .  S
C413       C1398   1.406       .  A
C413        C418   1.408       .  A
C413        H420   1.083       .  S
C414       C1242   1.469       .  S
C414       C1397   1.397   1_455  A
C414        C415   1.410       .  A
C415        C416   1.406       .  A
C415        C422   1.519       .  S
C416        C417   1.410       .  A
C416        H421   1.081       .  S
C417       C1402   1.426   1_455  A
C418       C1401   1.424       .  A
C418        C419   1.521       .  S
C419        F423   1.385       .  S
C419        F424   1.384       .  S
C419        F425   1.382       .  S
C422        F426   1.383       .  S
C422        F427   1.383       .  S
C422        F428   1.385       .  S
C429        C430   1.409       .  A
C429        C434   1.404       .  A
C429        H436   1.082       .  S
C430        C767   1.494       .  S
C430        C431   1.424       .  A
C431        C432   1.406       .  A
C431        C930   1.520       .  S
C432        C433   1.404       .  A
C432        H437   1.083       .  S
C433        C434   1.417       .  A
C434        C435   1.520       .  S
C435        F439   1.385       .  S
C435        F440   1.384       .  S
C435        F441   1.382       .  S
C438        C923   1.519       .  S
C438        F442   1.383       .  S
C438        F689   1.383       .  S
C438        F690   1.385       .  S
F443        C684   1.382       .  S
F444        C684   1.385       .  S
C445        C446   1.409       .  A
C445        C450   1.405       .  A
C445        H452   1.082       .  S
C446        C447   1.422       .  A
C447        C448   1.409       .  A
C447        C946   1.520       .  S
C448        C449   1.407       .  A
C448        H453   1.082       .  S
C449        C450   1.420       .  A
C450        C451   1.522       .  S
C451        F455   1.385       .  S
C451        F456   1.384       .  S
C451        F949   1.381       .  S
C454        C939   1.521       .  S
C454        F704   1.383       .  S
C454        F459   1.383       .  S
C454        F460   1.385       .  S
F457        C943   1.381       .  S
F458        C700   1.383       .  S
C461        C462   1.400       .  A
C461        C466   1.406       .  A
C461        H468   1.083       .  S
C462        C463   1.414       .  A
C463        C464   1.404       .  A
C463        C470   1.518       .  S
C464        C465   1.402       .  A
C464        H469   1.083       .  S
C465        C761   1.475       .  S
C465        C466   1.419       .  A
C466        C467   1.518       .  S
C467        F965   1.384       .  S
C470        F474   1.383       .  S
C470        F475   1.382       .  S
C470        F476   1.385       .  S
F473        C959   1.385       .  S
C477        C970   1.402   1_545  A
C477        C482   1.403       .  A
C477        H484   1.083       .  S
C478        C969   1.399       .  A
C478        C479   1.411       .  A
C479        C480   1.403       .  A
C479        C486   1.517       .  S
C480        C481   1.404       .  A
C480        H485   1.083       .  S
C481        C974   1.421       .  A
C482        C973   1.415   1_545  A
C482        C483   1.518       .  S
C483        F487   1.385       .  S
C483        F488   1.383       .  S
C483        F489   1.381       .  S
C486        F490   1.383       .  S
C486        F491   1.383       .  S
C486        F492   1.385       .  S
O493       Zr505   2.437       .  S
O493        C495   1.286       .  A
O494       Zr531   2.407       .  S
C495        C727   1.465       .  S
O496       Zr508   2.441       .  S
O496       C1482   1.287       .  A
O497       Zr532   2.425       .  S
O497        C498   1.286       .  A
C498       O1480   1.288       .  A
C498       C1612   1.475       .  S
O499       Zr508   2.425       .  S
O499        C501   1.287       .  A
O500       Zr777   2.430       .  S
C501        C692   1.487       .  S
O502       Zr505   2.452       .  S
O502       C1488   1.290       .  A
O503       Zr778   2.405   1_554  S
O503        C504   1.282       .  A
C504       O1486   1.289       .  A
C504       C1644   1.467       .  S
Zr505       O506   2.434       .  S
Zr505       O507   2.436       .  S
Zr505       O511   2.377       .  S
Zr505       O512   2.371       .  S
Zr505      O1519   2.362   1_455  S
O506        H549   0.990       .  S
O507        H548   0.990       .  S
O507        H552   0.990       .  S
Zr508       O509   2.436       .  S
Zr508       O510   2.435       .  S
Zr508       O758   2.366       .  S
Zr508       O757   2.372       .  S
Zr508      O1522   2.370   1_455  S
O509        H550   0.990       .  S
O509        H553   0.990       .  S
O510        H543   0.990       .  S
O511       Zr754   2.371   1_554  S
O512       Zr754   2.362   1_554  S
O512      Zr1762   2.378   1_454  S
O512        H539   0.967       .  S
O513       Zr525   2.439       .  S
O513        C515   1.286       .  A
O514       Zr778   2.429   1_554  S
O516       Zr528   2.451       .  S
O516       C1502   1.289       .  A
O517       Zr777   2.417       .  S
O517        C518   1.284       .  A
C518       O1500   1.287   1_455  A
C518        C612   1.467       .  S
O519       Zr528   2.432       .  S
O519        C521   1.285       .  A
O520       Zr532   2.424       .  S
O522       Zr525   2.439       .  S
O522       C1508   1.285       .  A
O523       Zr531   2.440       .  S
O523        C524   1.290       .  A
C524       O1506   1.288   1_455  A
C524        C647   1.502       .  S
Zr525       O526   2.436       .  S
Zr525       O527   2.434       .  S
Zr525       O779   2.369       .  S
Zr525       O780   2.378       .  S
Zr525      O1521   2.369       .  S
O526        H546   0.990       .  S
O526        H551   0.990       .  S
O527        H547   0.990       .  S
Zr528       O529   2.434       .  S
Zr528       O530   2.434       .  S
Zr528       O534   2.369       .  S
Zr528       O533   2.379       .  S
Zr528      O1520   2.359       .  S
O529        H545   0.990       .  S
O530        H544   0.989       .  S
O530        H554   0.989       .  S
Zr531       O746   2.436   1_554  S
Zr531       O763   2.415   1_554  S
Zr531      O1764   2.381   1_454  S
Zr531       O782   2.381   1_554  S
Zr531       O537   2.387       .  S
Zr532       O749   2.424       .  S
Zr532       O760   2.415       .  S
Zr532      O1742   2.380       .  S
Zr532       O781   2.382       .  S
Zr532       O538   2.375       .  S
O533       Zr771   2.369       .  S
O533        H541   0.966       .  S
O534       Zr771   2.376       .  S
O534      Zr1761   2.375       .  S
O535      Zr1489   2.372       .  S
O535       Zr778   2.376   1_554  S
O536      Zr1512   2.363   1_455  S
O536       Zr777   2.385       .  S
O536        H540   0.966       .  S
O537      Zr1509   2.378   1_455  S
O537        H542   0.967       .  S
O538      Zr1492   2.372       .  S
C555        C663   1.488       .  S
C555        N556   1.358       .  A
C555        N560   1.360   1_655  A
N556        C557   1.360   1_655  A
C557        C599   1.492   1_455  S
C557        N558   1.361       .  A
N558        C559   1.364       .  A
C559        C644   1.503       .  S
C559        N560   1.359       .  A
C561        C631   1.482       .  S
C561        N562   1.361   1_455  A
C561        N566   1.358       .  A
N562        C563   1.360       .  A
C563        C596   1.486       .  S
C563        N564   1.358       .  A
N564        C565   1.359       .  A
C565        C615   1.484   1_655  S
C565        N566   1.357   1_655  A
C567        C708   1.490       .  S
C567        N568   1.356       .  A
C567        N572   1.362       .  A
N568        C569   1.354       .  A
C569        C580   1.470       .  S
C569        N570   1.355       .  A
N570        C571   1.356       .  A
C571        C724   1.479       .  S
C571        N572   1.358       .  A
C573        C679   1.490       .  S
C573        N574   1.353       .  A
C573        N578   1.358   1_545  A
N574        C575   1.357   1_545  A
C575        C695   1.479       .  S
C575        N576   1.354       .  A
N576        C577   1.354       .  A
C577        C583   1.468       .  S
C577        N578   1.354       .  A
C579        C580   1.403   1_545  A
C579        C584   1.403       .  A
C579        H586   1.084       .  S
C580        C581   1.415       .  A
C581        C582   1.404       .  A
C581        C588   1.519       .  S
C582        C583   1.402       .  A
C582        H587   1.083       .  S
C583        C584   1.415   1_565  A
C584        C585   1.520       .  S
C585        F591   1.381       .  S
C588        F592   1.380       .  S
C588        F593   1.383       .  S
C588        F594   1.385       .  S
C595        C596   1.405   1_455  A
C595        C600   1.410       .  A
C595        H602   1.083       .  S
C596       C1581   1.417       .  A
C597       C1580   1.418       .  A
C597        C598   1.407       .  A
C597        C604   1.518       .  S
C598       C1583   1.403       .  A
C598        H603   1.083       .  S
C599       C1582   1.407       .  A
C599        C600   1.421   1_655  A
C600        C601   1.519       .  S
C601        F605   1.385       .  S
C601        F606   1.383       .  S
C601        F607   1.383       .  S
C604        F608   1.381       .  S
C604        F609   1.383       .  S
C604        F610   1.385       .  S
C611       C1596   1.401       .  A
C611        C616   1.412       .  A
C611        H618   1.083       .  S
C612       C1595   1.399   1_455  A
C612        C613   1.410       .  A
C613        C614   1.404       .  A
C613        C620   1.519       .  S
C614        C615   1.407       .  A
C614        H619   1.083       .  S
C615       C1600   1.423   1_455  A
C616       C1599   1.423       .  A
C616        C617   1.519       .  S
C617        F621   1.385       .  S
C617        F622   1.384       .  S
C617        F623   1.382       .  S
C620        F624   1.383       .  S
C620        F625   1.383       .  S
C620        F626   1.384       .  S
C627        C628   1.401       .  A
C627        C632   1.408       .  A
C627        H634   1.083       .  S
C628       C1482   1.476       .  S
C628       C1613   1.414   1_455  A
C629       C1612   1.412       .  A
C629        C630   1.408       .  A
C629        C636   1.517       .  S
C630       C1615   1.406       .  A
C630        H635   1.082       .  S
C631       C1614   1.404   1_455  A
C631        C632   1.420       .  A
C632        C633   1.519       .  S
C633        F637   1.385       .  S
C633        F638   1.383       .  S
C633        F639   1.382       .  S
C636        F640   1.384       .  S
C636        F887   1.382       .  S
C636        F642   1.384       .  S
F641        C882   1.380       .  S
C643       C1628   1.403       .  A
C643        C648   1.407       .  A
C643        H650   1.083       .  S
C644       C1627   1.406   1_455  A
C644        C645   1.426       .  A
C645        C646   1.413       .  A
C645        C652   1.521       .  S
C646        C647   1.407       .  A
C646        H651   1.083       .  S
C647       C1632   1.424   1_455  A
C648       C1631   1.425       .  A
C648        C649   1.521       .  S
C649        F653   1.385       .  S
C649        F654   1.383       .  S
C649        F655   1.383       .  S
C652        F656   1.384       .  S
C652        F657   1.383       .  S
C652        F658   1.385       .  S
C659       C1644   1.401       .  A
C659        C664   1.408       .  A
C659        H666   1.084       .  S
C660       C1488   1.473       .  S
C660       C1643   1.400   1_455  A
C660        C661   1.412       .  A
C661        C662   1.407       .  A
C661        C668   1.518       .  S
C662        C663   1.407   1_455  A
C662        H667   1.082       .  S
C663       C1648   1.423       .  A
C664       C1647   1.420       .  A
C664        C665   1.518       .  S
C665        F669   1.385       .  S
C665        F670   1.382       .  S
C665        F671   1.384       .  S
C668        F672   1.383       .  S
C668        F673   1.383       .  S
C668        F674   1.385       .  S
C675        C676   1.402   1_565  A
C675        C680   1.405       .  A
C675        H682   1.083       .  S
C676        C677   1.418       .  A
C677        C678   1.401       .  A
C678        C679   1.407       .  A
C678        H683   1.082       .  S
C679        C680   1.426   1_545  A
C680        C681   1.522       .  S
C681        F685   1.385       .  S
C681        F686   1.383       .  S
C681        F687   1.382   1_565  S
C684        F688   1.382       .  S
C691        C692   1.409       .  A
C691        C696   1.402       .  A
C691        H698   1.082       .  S
C692        C693   1.423   1_565  A
C693        C694   1.401       .  A
C694        C695   1.403   1_545  A
C694        H699   1.081       .  S
C695        C696   1.418       .  A
C696        C697   1.522       .  S
C697        F701   1.385       .  S
C697        F702   1.383       .  S
C700        F705   1.383       .  S
C700        F706   1.385       .  S
C707        C708   1.404       .  A
C707        C712   1.404       .  A
C707        H714   1.079       .  S
C708        C709   1.423   1_565  A
C709        C710   1.407       .  A
C709        C716   1.523       .  S
C710        C711   1.407   1_545  A
C710        H715   1.083       .  S
C711        C712   1.418       .  A
C712        C713   1.518       .  S
C713        F963   1.383       .  S
C713        F964   1.384       .  S
C716        F720   1.380       .  S
C716        F721   1.384       .  S
C716        F722   1.384       .  S
F717        C959   1.381       .  S
F718        C959   1.382       .  S
C723        C728   1.402       .  A
C723        H730   1.084       .  S
C724        C725   1.420       .  A
C725        C726   1.405       .  A
C725        C732   1.517       .  S
C726        C727   1.398       .  A
C726        H731   1.084       .  S
C728        C729   1.519       .  S
C729        F733   1.384       .  S
C729        F734   1.383       .  S
C729        F735   1.382       .  S
C732        F736   1.383       .  S
C732        F737   1.380       .  S
C732        F738   1.385       .  S
O739       Zr751   2.441       .  S
O739        C741   1.288       .  A
O740       Zr777   2.410       .  S
C741        C973   1.468       .  S
O742       Zr754   2.454       .  S
O742       C1728   1.290       .  A
O743       Zr778   2.431       .  S
O743        C744   1.287       .  A
C744       O1726   1.288       .  A
C744       C1858   1.478       .  S
O745       Zr754   2.439       .  S
O745        C747   1.289       .  A
C747        C938   1.495       .  S
O748       Zr751   2.447       .  S
O748       C1734   1.290       .  A
O749        C750   1.285       .  A
C750       O1732   1.289       .  A
C750       C1890   1.491       .  S
Zr751       O752   2.435       .  S
Zr751       O753   2.435       .  S
Zr751       O757   2.370       .  S
Zr751       O758   2.368       .  S
Zr751      O1765   2.372   1_455  S
O752        H795   0.990       .  S
O753        H794   0.990       .  S
O753        H798   0.990       .  S
Zr754       O755   2.435       .  S
Zr754       O756   2.435       .  S
Zr754      O1768   2.372   1_455  S
O755        H796   0.990       .  S
O755        H799   0.990       .  S
O756        H789   0.990       .  S
O758      Zr1516   2.380   1_455  S
O758        H785   0.966       .  S
O759       Zr771   2.442       .  S
O759        C761   1.288       .  A
O762       Zr774   2.448       .  S
O762       C1748   1.289       .  A
O763        C764   1.284       .  A
C764       O1746   1.289   1_455  A
C764        C858   1.470       .  S
O765       Zr774   2.443       .  S
O765        C767   1.286       .  A
O766       Zr778   2.398       .  S
O768       Zr771   2.444       .  S
O768       C1754   1.286       .  A
O769       Zr777   2.440       .  S
O769        C770   1.290       .  A
C770       O1752   1.285   1_455  A
C770        C893   1.498       .  S
Zr771       O772   2.436       .  S
Zr771       O773   2.434       .  S
Zr771      O1767   2.368       .  S
O772        H792   0.990       .  S
O772        H797   0.990       .  S
O773        H793   0.990       .  S
Zr774       O775   2.434       .  S
Zr774       O776   2.433       .  S
Zr774       O780   2.375   1_556  S
Zr774       O779   2.373   1_556  S
Zr774      O1766   2.360       .  S
O775        H791   0.990       .  S
O776        H790   0.989       .  S
O776        H800   0.990       .  S
Zr777      O1518   2.378   1_455  S
Zr777       O783   2.381       .  S
Zr778      O1496   2.381       .  S
Zr778       O784   2.378       .  S
O779        H787   0.966       .  S
O780      Zr1515   2.381       .  S
O781      Zr1735   2.374       .  S
O782      Zr1758   2.371   1_455  S
O782        H786   0.966       .  S
O783      Zr1755   2.368   1_455  S
O783        H788   0.966       .  S
O784      Zr1738   2.370       .  S
C801        C909   1.497       .  S
C801        N802   1.358       .  A
C801        N806   1.361       .  A
N802        C803   1.359       .  A
C803        C845   1.494       .  S
C803        N804   1.358       .  A
N804        C805   1.361       .  A
C805        C890   1.496       .  S
C805        N806   1.358       .  A
C807        C877   1.478       .  S
C807        N808   1.358       .  A
C807        N812   1.357       .  A
N808        C809   1.359       .  A
C809        C842   1.491       .  S
C809        N810   1.361       .  A
N810        C811   1.360       .  A
C811        C861   1.485       .  S
C811        N812   1.358       .  A
C813        C954   1.465       .  S
C813        N814   1.357       .  A
C813        N818   1.354       .  A
N814        C815   1.358       .  A
C815        C826   1.478       .  S
C815        N816   1.358       .  A
N816        C817   1.358       .  A
C817        C970   1.470       .  S
C817        N818   1.354       .  A
C819        C925   1.476       .  S
C819        N820   1.356       .  A
C819        N824   1.354       .  A
N820        C821   1.359       .  A
C821        C941   1.488       .  S
C821        N822   1.361       .  A
N822        C823   1.358       .  A
C823        C829   1.477       .  S
C823        N824   1.354       .  A
C825        C826   1.405   1_545  A
C825        C830   1.407       .  A
C825        H832   1.083       .  S
C826        C827   1.417       .  A
C827        C828   1.404       .  A
C827        C834   1.520       .  S
C828        C829   1.404       .  A
C828        H833   1.083       .  S
C829        C830   1.415   1_565  A
C830        C831   1.519       .  S
C831        F837   1.380       .  S
C834        F838   1.382       .  S
C834        F839   1.383       .  S
C834        F840   1.385       .  S
C841        C842   1.406       .  A
C841        C846   1.410       .  A
C841        H848   1.083       .  S
C842       C1827   1.421   1_455  A
C843       C1826   1.421       .  A
C843        C844   1.409       .  A
C843        C850   1.521       .  S
C844       C1829   1.406       .  A
C844        H849   1.083       .  S
C845       C1828   1.406   1_455  A
C845        C846   1.423       .  A
C846        C847   1.521       .  S
C847        F851   1.385       .  S
C847        F852   1.383       .  S
C847        F853   1.383       .  S
C850        F854   1.382       .  S
C850        F855   1.384       .  S
C850        F856   1.385       .  S
C857       C1842   1.403       .  A
C857        C862   1.408       .  A
C857        H864   1.083       .  S
C858       C1841   1.398   1_455  A
C858        C859   1.412       .  A
C859        C860   1.406       .  A
C859        C866   1.518       .  S
C860        C861   1.406       .  A
C860        H865   1.083       .  S
C861       C1846   1.423   1_455  A
C862       C1845   1.416       .  A
C862        C863   1.517       .  S
C863        F867   1.384       .  S
C863        F868   1.383       .  S
C863        F869   1.382       .  S
C866        F870   1.383       .  S
C866        F871   1.382       .  S
C866        F872   1.384       .  S
C873        C874   1.404       .  A
C873        C878   1.408       .  A
C873        H880   1.083       .  S
C874       C1728   1.482       .  S
C874       C1859   1.419   1_455  A
C875       C1858   1.416       .  A
C875        C876   1.409       .  A
C875        C882   1.516       .  S
C876       C1861   1.404       .  A
C876        H881   1.083       .  S
C877       C1860   1.402   1_455  A
C877        C878   1.415       .  A
C878        C879   1.517       .  S
C879        F883   1.385       .  S
C879        F884   1.384       .  S
C879        F885   1.382       .  S
C882        F886   1.384       .  S
C882        F888   1.385       .  S
C889       C1874   1.405       .  A
C889        C894   1.406       .  A
C889        H896   1.082       .  S
C890       C1873   1.404   1_455  A
C890        C891   1.423       .  A
C891        C892   1.410       .  A
C891        C898   1.520       .  S
C892        C893   1.407       .  A
C892        H897   1.082       .  S
C893       C1878   1.426   1_455  A
C894       C1877   1.424       .  A
C894        C895   1.521       .  S
C895        F899   1.385       .  S
C895        F900   1.383       .  S
C895        F901   1.383       .  S
C898        F902   1.384       .  S
C898        F903   1.382       .  S
C898        F904   1.385       .  S
C905       C1890   1.405       .  A
C905        C910   1.404       .  A
C905        H912   1.082       .  S
C906       C1734   1.491       .  S
C906       C1889   1.405       .  A
C906        C907   1.420   1_455  A
C907        C908   1.408       .  A
C907        C914   1.521       .  S
C908        C909   1.408   1_655  A
C908        H913   1.082       .  S
C909       C1894   1.425       .  A
C910       C1893   1.422       .  A
C910        C911   1.522       .  S
C911        F915   1.385       .  S
C911        F916   1.384       .  S
C911        F917   1.382       .  S
C914        F918   1.383   1_655  S
C914        F919   1.382       .  S
C914        F920   1.385       .  S
C921        C922   1.413       .  A
C921        C926   1.403       .  A
C921        H928   1.080       .  S
C922        C923   1.424   1_565  A
C923        C924   1.404       .  A
C924        C925   1.402   1_545  A
C924        H929   1.083       .  S
C925        C926   1.414       .  A
C926        C927   1.522       .  S
C927        F931   1.385       .  S
C927        F932   1.384       .  S
C927        F933   1.382       .  S
C930        F934   1.382       .  S
C937        C938   1.408       .  A
C937        C942   1.404       .  A
C937        H944   1.082       .  S
C938        C939   1.423   1_565  A
C939        C940   1.409       .  A
C940        C941   1.407   1_545  A
C940        H945   1.083       .  S
C941        C942   1.419       .  A
C942        C943   1.522       .  S
C943        F947   1.384       .  S
C943        F948   1.384       .  S
C946        F951   1.382       .  S
C946        F952   1.385       .  S
C953        C954   1.396       .  A
C953        C958   1.406       .  A
C953        H960   1.083       .  S
C954        C955   1.410   1_565  A
C955        C956   1.404       .  A
C955        C962   1.518       .  S
C956        C957   1.408   1_545  A
C956        H961   1.083       .  S
C957        C958   1.426       .  A
C958        C959   1.518       .  S
C962        F966   1.383       .  S
C962        F967   1.384       .  S
C962        F968   1.384       .  S
C969        C974   1.405       .  A
C969        H976   1.084       .  S
C970        C971   1.417       .  A
C971        C972   1.405       .  A
C971        C978   1.519       .  S
C972        C973   1.401       .  A
C972        H977   1.084       .  S
C974        C975   1.520       .  S
C975        F979   1.385       .  S
C975        F980   1.383       .  S
C975        F981   1.382       .  S
C978        F982   1.383       .  S
C978        F983   1.383       .  S
C978        F984   1.385       .  S
O985       Zr997   2.443       .  S
O985        C987   1.288       .  A
O986      Zr1023   2.397       .  S
O986       C1479   1.281   1_545  A
C987       O1478   1.284       .  A
C987       C1219   1.471       .  S
O988      Zr1000   2.436       .  S
O989      Zr1024   2.424       .  S
O989        C990   1.285   1_655  A
O991      Zr1000   2.418       .  S
O991        C993   1.286       .  A
O992      Zr1269   2.404       .  S
O992       C1485   1.282   1_545  A
C993       O1484   1.284       .  A
C993       C1184   1.489       .  S
O994       Zr997   2.445       .  S
O995      Zr1270   2.408   1_554  S
O995        C996   1.282       .  A
Zr997       O998   2.435       .  S
Zr997       O999   2.436       .  S
Zr997      O1003   2.368       .  S
Zr997      O1004   2.371       .  S
Zr997      O1521   2.373       .  S
O998       H1041   0.990       .  S
O999       H1040   0.990       .  S
O999       H1044   0.990       .  S
Zr1000     O1001   2.434       .  S
Zr1000     O1002   2.435       .  S
Zr1000     O1250   2.360       .  S
Zr1000     O1249   2.370       .  S
Zr1000     O1520   2.373       .  S
O1001      H1042   0.990       .  S
O1001      H1045   0.990       .  S
O1002      H1035   0.990       .  S
O1003     Zr1246   2.374   1_554  S
O1003     Zr1515   2.383       .  S
O1004     Zr1246   2.361   1_554  S
O1004      H1031   0.967       .  S
O1005     Zr1017   2.448       .  S
O1005      C1007   1.289   1_545  A
O1006     Zr1270   2.406   1_554  S
O1006      C1499   1.280       .  A
C1007      O1498   1.285       .  A
C1007      C1695   1.485       .  S
O1008     Zr1020   2.450       .  S
O1009     Zr1269   2.430       .  S
O1009      C1010   1.287       .  A
C1010      C1104   1.469       .  S
O1011     Zr1020   2.445       .  S
O1011      C1013   1.286   1_545  A
O1012     Zr1024   2.406       .  S
O1012      C1505   1.285       .  A
C1013      O1504   1.287       .  A
C1013      C1660   1.503       .  S
O1014     Zr1017   2.440       .  S
O1015     Zr1023   2.434       .  S
O1015      C1016   1.289       .  A
C1016      C1139   1.497       .  S
Zr1017     O1018   2.437       .  S
Zr1017     O1019   2.434       .  S
Zr1017     O1271   2.373   1_554  S
Zr1017     O1272   2.379       .  S
Zr1017     O1519   2.366   1_545  S
O1018      H1038   0.990       .  S
O1018      H1043   0.990       .  S
O1019      H1039   0.990       .  S
Zr1020     O1021   2.432       .  S
Zr1020     O1022   2.435       .  S
Zr1020     O1026   2.378       .  S
Zr1020     O1025   2.376       .  S
Zr1020     O1522   2.370   1_545  S
O1021      H1037   0.990       .  S
O1022      H1036   0.990       .  S
O1022      H1046   0.990       .  S
Zr1023     O1238   2.417   1_554  S
Zr1023     O1255   2.414   1_554  S
Zr1023     O1495   2.382   1_545  S
Zr1023     O1274   2.379   1_554  S
Zr1023     O1029   2.382       .  S
Zr1024     O1241   2.427       .  S
Zr1024     O1252   2.435       .  S
Zr1024     O1517   2.384       .  S
Zr1024     O1273   2.376       .  S
Zr1024     O1030   2.381       .  S
O1025     Zr1263   2.374       .  S
O1025     Zr1516   2.386   1_545  S
O1025      H1033   0.966       .  S
O1026     Zr1263   2.376       .  S
O1027     Zr1509   2.368       .  S
O1027     Zr1270   2.377   1_554  S
O1028     Zr1492   2.372   1_545  S
O1028     Zr1269   2.376       .  S
O1028      H1032   0.966       .  S
O1029     Zr1489   2.379   1_545  S
O1029      H1034   0.967       .  S
O1030     Zr1512   2.374       .  S
C1047      C1155   1.492       .  S
C1047      N1048   1.355       .  A
C1047      N1052   1.361       .  A
N1048      C1049   1.355       .  A
C1049      C1091   1.490       .  S
C1049      N1050   1.357       .  A
N1050      C1051   1.361       .  A
C1051      C1136   1.494       .  S
C1051      N1052   1.359       .  A
C1053      C1123   1.480       .  S
C1053      N1054   1.362       .  A
C1053      N1058   1.355       .  A
N1054      C1055   1.361       .  A
C1055      C1088   1.491       .  S
C1055      N1056   1.360       .  A
N1056      C1057   1.358       .  A
C1057      C1107   1.476       .  S
C1057      N1058   1.354       .  A
C1059      C1200   1.478       .  S
C1059      N1060   1.354       .  A
C1059      N1064   1.360       .  A
N1060      C1061   1.354       .  A
C1061      C1072   1.470       .  S
C1061      N1062   1.356       .  A
N1062      C1063   1.356       .  A
C1063      C1216   1.476       .  S
C1063      N1064   1.358       .  A
C1065      C1171   1.474       .  S
C1065      N1066   1.354       .  A
C1065      N1070   1.355       .  A
N1066      C1067   1.355       .  A
C1067      C1187   1.475       .  S
C1067      N1068   1.355       .  A
N1068      C1069   1.353       .  A
C1069      C1075   1.468       .  S
C1069      N1070   1.353       .  A
C1071      C1072   1.403       .  A
C1071      C1076   1.403       .  A
C1071      H1078   1.083       .  S
C1072      C1073   1.417       .  A
C1073      C1074   1.402       .  A
C1073      C1080   1.520       .  S
C1074      C1075   1.402       .  A
C1074      H1079   1.084       .  S
C1075      C1076   1.415       .  A
C1076      C1077   1.519       .  S
C1077      F1573   1.385       .  S
C1077      F1574   1.383       .  S
C1077      F1083   1.382       .  S
C1080      F1084   1.382       .  S
C1080      F1085   1.383       .  S
C1080      F1086   1.385       .  S
F1081      C1569   1.385       .  S
F1082      C1569   1.382       .  S
C1087      C1088   1.406       .  A
C1087      C1092   1.408       .  A
C1087      H1094   1.083       .  S
C1089      C1090   1.408       .  A
C1089      C1096   1.518       .  S
C1090      H1095   1.083       .  S
C1091      C1092   1.420       .  A
C1092      C1093   1.521       .  S
C1093      F1097   1.384       .  S
C1093      F1098   1.384       .  S
C1093      F1099   1.383       .  S
C1096      F1100   1.382       .  S
C1096      F1101   1.383       .  S
C1096      F1102   1.385       .  S
C1103      C1108   1.410       .  A
C1103      H1110   1.083       .  S
C1104      C1105   1.414       .  A
C1105      C1106   1.405       .  A
C1105      C1112   1.516       .  S
C1106      C1107   1.403       .  A
C1106      H1111   1.083       .  S
C1108      C1109   1.519       .  S
C1109      F1113   1.385       .  S
C1109      F1114   1.383       .  S
C1109      F1115   1.382       .  S
C1112      F1116   1.384       .  S
C1112      F1117   1.380       .  S
C1112      F1118   1.385       .  S
C1119      C1120   1.399       .  A
C1119      C1124   1.407       .  A
C1119      H1126   1.083       .  S
C1121      C1122   1.409       .  A
C1121      C1128   1.519       .  S
C1122      H1127   1.083       .  S
C1123      C1124   1.422       .  A
C1124      C1125   1.520       .  S
C1125      F1129   1.385       .  S
C1125      F1130   1.383       .  S
C1125      F1131   1.383       .  S
C1128      F1132   1.383       .  S
C1128      F1379   1.382       .  S
C1128      F1134   1.385       .  S
F1133      C1374   1.381       .  S
C1135      C1140   1.406       .  A
C1135      H1142   1.082       .  S
C1136      C1137   1.422       .  A
C1137      C1138   1.409       .  A
C1137      C1144   1.520       .  S
C1138      C1139   1.407       .  A
C1138      H1143   1.083       .  S
C1140      C1141   1.520       .  S
C1141      F1145   1.385       .  S
C1141      F1146   1.383       .  S
C1141      F1147   1.383       .  S
C1144      F1148   1.384       .  S
C1144      F1149   1.382       .  S
C1144      F1150   1.385       .  S
C1151      C1156   1.407       .  A
C1151      H1158   1.084       .  S
C1152      C1153   1.422       .  A
C1153      C1154   1.407       .  A
C1153      C1160   1.521       .  S
C1154      C1155   1.406       .  A
C1154      H1159   1.082       .  S
C1156      C1157   1.519       .  S
C1157      F1161   1.385       .  S
C1157      F1162   1.382       .  S
C1157      F1163   1.384       .  S
C1160      F1164   1.383       .  S
C1160      F1165   1.382       .  S
C1160      F1166   1.385       .  S
C1167      C1168   1.409       .  A
C1167      C1172   1.400       .  A
C1167      H1174   1.082       .  S
C1168      C1505   1.488       .  S
C1168      C1169   1.424       .  A
C1169      C1170   1.402       .  A
C1169      C1668   1.521       .  S
C1170      C1171   1.402       .  A
C1170      H1175   1.083       .  S
C1171      C1172   1.416       .  A
C1172      C1173   1.522       .  S
C1173      F1177   1.385       .  S
C1173      F1178   1.384       .  S
C1173      F1179   1.382       .  S
C1176      C1661   1.520       .  S
C1176      F1180   1.381       .  S
C1176      F1919   1.382       .  S
C1176      F1920   1.385       .  S
F1181      C1914   1.382       .  S
F1182      C1914   1.385       .  S
C1183      C1184   1.410       .  A
C1183      C1188   1.399       .  A
C1183      H1190   1.082       .  S
C1184      C1185   1.423       .  A
C1185      C1186   1.406       .  A
C1185      C1684   1.521       .  S
C1186      C1187   1.404       .  A
C1186      H1191   1.083       .  S
C1187      C1188   1.415       .  A
C1188      C1189   1.523       .  S
C1189      F1193   1.385       .  S
C1189      F1194   1.384       .  S
C1189      F1687   1.382       .  S
C1192      C1677   1.522       .  S
C1192      F1934   1.383       .  S
C1192      F1197   1.383   1_565  S
C1192      F1198   1.384       .  S
F1195      C1681   1.383       .  S
F1196      C1930   1.383       .  S
C1199      C1200   1.398       .  A
C1199      C1204   1.405       .  A
C1199      H1206   1.082       .  S
C1200      C1201   1.416       .  A
C1201      C1202   1.405       .  A
C1201      C1208   1.521       .  S
C1202      C1203   1.411       .  A
C1202      H1207   1.081       .  S
C1203      C1499   1.501       .  S
C1203      C1204   1.431       .  A
C1204      C1205   1.522       .  S
C1205      F1455   1.382       .  S
C1205      F1456   1.379       .  S
C1205      F1703   1.385       .  S
C1208      F1212   1.382       .  S
C1208      F1213   1.383       .  S
C1208      F1214   1.385       .  S
F1209      C1451   1.383       .  S
F1210      C1451   1.383       .  S
F1211      C1697   1.384       .  S
C1215      C1708   1.400   1_545  A
C1215      C1220   1.401       .  A
C1215      H1222   1.084       .  S
C1216      C1707   1.405       .  A
C1216      C1217   1.417       .  A
C1217      C1218   1.405       .  A
C1217      C1224   1.518       .  S
C1218      C1219   1.401       .  A
C1218      H1223   1.083       .  S
C1219      C1712   1.414       .  A
C1220      C1711   1.416   1_545  A
C1220      C1221   1.520       .  S
C1221      F1225   1.384       .  S
C1221      F1226   1.384       .  S
C1221      F1227   1.382       .  S
C1224      F1228   1.383       .  S
C1224      F1229   1.382       .  S
C1224      F1230   1.385       .  S
O1231     Zr1243   2.439       .  S
O1231      C1233   1.287       .  A
O1232     Zr1269   2.412       .  S
O1232      C1725   1.283   1_545  A
C1233      O1724   1.283       .  A
C1233      C1465   1.467       .  S
O1234     Zr1246   2.450       .  S
O1235     Zr1270   2.424       .  S
O1235      C1236   1.285   1_655  A
O1237     Zr1246   2.429       .  S
O1237      C1239   1.287       .  A
O1238      C1731   1.283   1_545  A
C1239      O1730   1.284       .  A
C1239      C1430   1.479       .  S
O1240     Zr1243   2.442       .  S
O1241      C1242   1.286   1_655  A
Zr1243     O1244   2.435       .  S
Zr1243     O1245   2.435       .  S
Zr1243     O1249   2.367       .  S
Zr1243     O1250   2.371       .  S
Zr1243     O1767   2.371       .  S
O1244      H1287   0.990       .  S
O1245      H1286   0.990       .  S
O1245      H1290   0.990       .  S
Zr1246     O1247   2.436       .  S
Zr1246     O1248   2.434       .  S
Zr1246     O1766   2.370       .  S
O1247      H1288   0.990       .  S
O1247      H1291   0.990       .  S
O1248      H1281   0.990       .  S
O1249     Zr1761   2.383       .  S
O1250      H1277   0.966       .  S
O1251     Zr1263   2.444       .  S
O1251      C1253   1.289   1_545  A
O1252      C1745   1.287       .  A
C1253      O1744   1.282       .  A
C1253      C1941   1.496       .  S
O1254     Zr1266   2.442       .  S
O1255      C1256   1.284       .  A
C1256      C1350   1.474       .  S
O1257     Zr1266   2.434       .  S
O1257      C1259   1.284   1_545  A
O1258     Zr1270   2.410       .  S
O1258      C1751   1.285       .  A
C1259      O1750   1.286       .  A
C1259      C1906   1.493       .  S
O1260     Zr1263   2.448       .  S
O1261     Zr1269   2.422       .  S
O1261      C1262   1.287       .  A
C1262      C1385   1.503       .  S
Zr1263     O1264   2.434       .  S
Zr1263     O1265   2.434       .  S
Zr1263     O1765   2.372   1_545  S
O1264      H1284   0.990       .  S
O1264      H1289   0.990       .  S
O1265      H1285   0.990       .  S
Zr1266     O1267   2.434       .  S
Zr1266     O1268   2.434       .  S
Zr1266     O1272   2.370   1_556  S
Zr1266     O1271   2.377       .  S
Zr1266     O1768   2.376   1_545  S
O1267      H1283   0.990       .  S
O1268      H1282   0.990       .  S
O1268      H1292   0.990       .  S
Zr1269     O1741   2.382   1_545  S
Zr1269     O1275   2.380       .  S
Zr1270     O1763   2.387       .  S
Zr1270     O1276   2.371       .  S
O1271     Zr1762   2.383   1_545  S
O1271      H1279   0.966       .  S
O1273     Zr1755   2.371       .  S
O1274     Zr1738   2.371   1_545  S
O1274      H1278   0.965       .  S
O1275     Zr1735   2.372   1_545  S
O1275      H1280   0.967       .  S
O1276     Zr1758   2.373       .  S
C1293      C1401   1.497       .  S
C1293      N1294   1.357       .  A
C1293      N1298   1.358       .  A
N1294      C1295   1.360       .  A
C1295      C1337   1.491       .  S
C1295      N1296   1.360       .  A
N1296      C1297   1.362       .  A
C1297      C1382   1.491       .  S
C1297      N1298   1.357       .  A
C1299      C1369   1.480       .  S
C1299      N1300   1.358       .  A
C1299      N1304   1.359       .  A
N1300      C1301   1.359       .  A
C1301      C1334   1.493       .  S
C1301      N1302   1.360       .  A
N1302      C1303   1.361       .  A
C1303      C1353   1.489       .  S
C1303      N1304   1.359       .  A
C1305      C1446   1.475       .  S
C1305      N1306   1.358       .  A
C1305      N1310   1.358       .  A
N1306      C1307   1.357       .  A
C1307      C1318   1.467       .  S
C1307      N1308   1.354       .  A
N1308      C1309   1.354       .  A
C1309      C1462   1.470       .  S
C1309      N1310   1.358       .  A
C1311      C1417   1.483       .  S
C1311      N1312   1.357       .  A
C1311      N1316   1.355       .  A
N1312      C1313   1.362       .  A
C1313      C1433   1.498       .  S
C1313      N1314   1.360       .  A
N1314      C1315   1.358       .  A
C1315      C1321   1.470       .  S
C1315      N1316   1.352       .  A
C1317      C1318   1.401       .  A
C1317      C1322   1.406       .  A
C1317      H1324   1.083       .  S
C1318      C1319   1.413       .  A
C1319      C1320   1.404       .  A
C1319      C1326   1.518       .  S
C1320      C1321   1.402       .  A
C1320      H1325   1.083       .  S
C1321      C1322   1.415       .  A
C1322      C1323   1.517       .  S
C1323      F1819   1.385       .  S
C1323      F1820   1.383       .  S
C1323      F1329   1.381       .  S
C1326      F1330   1.383       .  S
C1326      F1331   1.383       .  S
C1326      F1332   1.385       .  S
F1327      C1815   1.385       .  S
F1328      C1815   1.383       .  S
C1333      C1334   1.407       .  A
C1333      C1338   1.411       .  A
C1333      H1340   1.083       .  S
C1335      C1336   1.407       .  A
C1335      C1342   1.521       .  S
C1336      H1341   1.083       .  S
C1337      C1338   1.420       .  A
C1338      C1339   1.520       .  S
C1339      F1343   1.385       .  S
C1339      F1344   1.384       .  S
C1339      F1345   1.383       .  S
C1342      F1346   1.382       .  S
C1342      F1347   1.384       .  S
C1342      F1348   1.385       .  S
C1349      C1354   1.410       .  A
C1349      H1356   1.083       .  S
C1350      C1351   1.413       .  A
C1351      C1352   1.407       .  A
C1351      C1358   1.518       .  S
C1352      C1353   1.407       .  A
C1352      H1357   1.083       .  S
C1354      C1355   1.519       .  S
C1355      F1359   1.385       .  S
C1355      F1360   1.384       .  S
C1355      F1361   1.383       .  S
C1358      F1362   1.383       .  S
C1358      F1363   1.381       .  S
C1358      F1364   1.385       .  S
C1365      C1366   1.402       .  A
C1365      C1370   1.408       .  A
C1365      H1372   1.083       .  S
C1367      C1368   1.408       .  A
C1367      C1374   1.518       .  S
C1368      H1373   1.083       .  S
C1369      C1370   1.417       .  A
C1370      C1371   1.517       .  S
C1371      F1375   1.385       .  S
C1371      F1376   1.383       .  S
C1371      F1377   1.382       .  S
C1374      F1378   1.383       .  S
C1374      F1380   1.385       .  S
C1381      C1386   1.409       .  A
C1381      H1388   1.082       .  S
C1382      C1383   1.420       .  A
C1383      C1384   1.407       .  A
C1383      C1390   1.522       .  S
C1384      C1385   1.409       .  A
C1384      H1389   1.082       .  S
C1386      C1387   1.521       .  S
C1387      F1391   1.385       .  S
C1387      F1392   1.383       .  S
C1387      F1393   1.383       .  S
C1390      F1394   1.384       .  S
C1390      F1395   1.382       .  S
C1390      F1396   1.385       .  S
C1397      C1402   1.406       .  A
C1397      H1404   1.083       .  S
C1398      C1399   1.421       .  A
C1399      C1400   1.407       .  A
C1399      C1406   1.521       .  S
C1400      C1401   1.408       .  A
C1400      H1405   1.082       .  S
C1402      C1403   1.520       .  S
C1403      F1407   1.385       .  S
C1403      F1408   1.383       .  S
C1403      F1409   1.383       .  S
C1406      F1410   1.381       .  S
C1406      F1411   1.381       .  S
C1406      F1412   1.385       .  S
C1413      C1414   1.410       .  A
C1413      C1418   1.406       .  A
C1413      H1420   1.078       .  S
C1414      C1751   1.497       .  S
C1414      C1415   1.422       .  A
C1415      C1416   1.404       .  A
C1415      C1914   1.518       .  S
C1416      C1417   1.404       .  A
C1416      H1421   1.082       .  S
C1417      C1418   1.416       .  A
C1418      C1419   1.521       .  S
C1419      F1423   1.385       .  S
C1419      F1424   1.384       .  S
C1419      F1425   1.382       .  S
C1422      C1907   1.521       .  S
C1422      F1426   1.383       .  S
C1422      F1673   1.383       .  S
C1422      F1674   1.385       .  S
F1427      C1668   1.383       .  S
F1428      C1668   1.385       .  S
C1429      C1430   1.401       .  A
C1429      C1434   1.403       .  A
C1429      H1436   1.083       .  S
C1430      C1431   1.414       .  A
C1431      C1432   1.407       .  A
C1431      C1930   1.522       .  S
C1432      C1433   1.413       .  A
C1432      H1437   1.081       .  S
C1433      C1434   1.427       .  A
C1434      C1435   1.522       .  S
C1435      F1439   1.386       .  S
C1435      F1440   1.383       .  S
C1435      F1933   1.381       .  S
C1438      C1923   1.522       .  S
C1438      F1688   1.383   1_545  S
C1438      F1443   1.383       .  S
C1438      F1444   1.385       .  S
F1441      C1927   1.382       .  S
F1442      C1684   1.383       .  S
C1445      C1446   1.399       .  A
C1445      C1450   1.409       .  A
C1445      H1452   1.083       .  S
C1446      C1447   1.411       .  A
C1447      C1448   1.406       .  A
C1447      C1454   1.520       .  S
C1448      C1449   1.414       .  A
C1448      H1453   1.082       .  S
C1449      C1745   1.502       .  S
C1449      C1450   1.428       .  A
C1450      C1451   1.520       .  S
C1451      F1949   1.385       .  S
C1454      F1458   1.383       .  S
C1454      F1459   1.383       .  S
C1454      F1460   1.385       .  S
F1457      C1943   1.385       .  S
C1461      C1954   1.399   1_545  A
C1461      C1466   1.405       .  A
C1461      H1468   1.083       .  S
C1462      C1953   1.403       .  A
C1462      C1463   1.415       .  A
C1463      C1464   1.404       .  A
C1463      C1470   1.518       .  S
C1464      C1465   1.401       .  A
C1464      H1469   1.084       .  S
C1465      C1958   1.415       .  A
C1466      C1957   1.420   1_545  A
C1466      C1467   1.520       .  S
C1467      F1471   1.385       .  S
C1467      F1472   1.383       .  S
C1467      F1473   1.382       .  S
C1470      F1474   1.384       .  S
C1470      F1475   1.382       .  S
C1470      F1476   1.385       .  S
O1477     Zr1489   2.446       .  S
O1477      C1479   1.288       .  A
O1478     Zr1515   2.417       .  S
C1479      C1711   1.468       .  S
O1480     Zr1492   2.448       .  S
O1481     Zr1516   2.432       .  S
O1481      C1482   1.287   1_655  A
O1483     Zr1492   2.425       .  S
O1483      C1485   1.285       .  A
O1484     Zr1761   2.421       .  S
C1485      C1676   1.461       .  S
O1486     Zr1489   2.452       .  S
O1487     Zr1762   2.418   1_554  S
O1487      C1488   1.285   1_655  A
Zr1489     O1490   2.435       .  S
Zr1489     O1491   2.435       .  S
Zr1489     O1495   2.369       .  S
Zr1489     O1496   2.371   1_554  S
O1490      H1533   0.989       .  S
O1491      H1532   0.990       .  S
O1491      H1536   0.990       .  S
Zr1492     O1493   2.437       .  S
Zr1492     O1494   2.435       .  S
Zr1492     O1742   2.360       .  S
Zr1492     O1741   2.375       .  S
O1493      H1534   0.990       .  S
O1493      H1537   0.990       .  S
O1494      H1527   0.990       .  S
O1495     Zr1738   2.369   1_554  S
O1496     Zr1738   2.371       .  S
O1496      H1523   0.967       .  S
O1497     Zr1509   2.451       .  S
O1497      C1499   1.291       .  A
O1498     Zr1762   2.418   1_554  S
O1500     Zr1512   2.438       .  S
O1501     Zr1761   2.430       .  S
O1501      C1502   1.286       .  A
C1502      C1596   1.479       .  S
O1503     Zr1512   2.434       .  S
O1503      C1505   1.284       .  A
O1504     Zr1516   2.418       .  S
O1506     Zr1509   2.450       .  S
O1507     Zr1515   2.423       .  S
O1507      C1508   1.288       .  A
C1508      C1631   1.495       .  S
Zr1509     O1510   2.436       .  S
Zr1509     O1511   2.433       .  S
Zr1509     O1763   2.373   1_554  S
Zr1509     O1764   2.371   1_554  S
O1510      H1530   0.990       .  S
O1510      H1535   0.990       .  S
O1511      H1531   0.990       .  S
Zr1512     O1513   2.435       .  S
Zr1512     O1514   2.434       .  S
Zr1512     O1518   2.370       .  S
Zr1512     O1517   2.372       .  S
O1513      H1529   0.990       .  S
O1514      H1528   0.989       .  S
O1514      H1538   0.990       .  S
Zr1515     O1730   2.416   1_554  S
Zr1515     O1747   2.430   1_554  S
Zr1515     O1766   2.378   1_554  S
Zr1515     O1521   2.382       .  S
Zr1516     O1733   2.423       .  S
Zr1516     O1744   2.414       .  S
Zr1516     O1765   2.379       .  S
Zr1516     O1522   2.374       .  S
O1517     Zr1755   2.367       .  S
O1517      H1525   0.966       .  S
O1518     Zr1755   2.372       .  S
O1519     Zr1762   2.373   1_554  S
O1520     Zr1761   2.375       .  S
O1520      H1524   0.966       .  S
O1521      H1526   0.967       .  S
C1539      C1647   1.481       .  S
C1539      N1540   1.358       .  A
C1539      N1544   1.357       .  A
N1540      C1541   1.359       .  A
C1541      C1583   1.484       .  S
C1541      N1542   1.358       .  A
N1542      C1543   1.361       .  A
C1543      C1628   1.488       .  S
C1543      N1544   1.355       .  A
C1545      C1615   1.485       .  S
C1545      N1546   1.360       .  A
C1545      N1550   1.361       .  A
N1546      C1547   1.358       .  A
C1547      C1580   1.483       .  S
C1547      N1548   1.359       .  A
N1548      C1549   1.361       .  A
C1549      C1599   1.491       .  S
C1549      N1550   1.361       .  A
C1551      C1692   1.507       .  S
C1551      N1552   1.360       .  A
C1551      N1556   1.363       .  A
N1552      C1553   1.362       .  A
C1553      C1564   1.481       .  S
C1553      N1554   1.351       .  A
N1554      C1555   1.350       .  A
C1555      C1708   1.468       .  S
C1555      N1556   1.355       .  A
C1557      C1663   1.466       .  S
C1557      N1558   1.353       .  A
C1557      N1562   1.354       .  A
N1558      C1559   1.358       .  A
C1559      C1679   1.492       .  S
C1559      N1560   1.355       .  A
N1560      C1561   1.357       .  A
C1561      C1567   1.476       .  S
C1561      N1562   1.354       .  A
C1563      C1564   1.403   1_545  A
C1563      C1568   1.403       .  A
C1563      H1570   1.081       .  S
C1564      C1565   1.423       .  A
C1565      C1566   1.405       .  A
C1565      C1572   1.522       .  S
C1566      C1567   1.402       .  A
C1566      H1571   1.083       .  S
C1567      C1568   1.417   1_565  A
C1568      C1569   1.520       .  S
C1569      F1575   1.384       .  S
C1572      F1576   1.383       .  S
C1572      F1577   1.383       .  S
C1572      F1578   1.385       .  S
C1579      C1580   1.404       .  A
C1579      C1584   1.410       .  A
C1579      H1586   1.083       .  S
C1581      C1582   1.409       .  A
C1581      C1588   1.520       .  S
C1582      H1587   1.082       .  S
C1583      C1584   1.419       .  A
C1584      C1585   1.520       .  S
C1585      F1589   1.385       .  S
C1585      F1590   1.384       .  S
C1585      F1591   1.382       .  S
C1588      F1592   1.381       .  S
C1588      F1593   1.384       .  S
C1588      F1594   1.385       .  S
C1595      C1600   1.408       .  A
C1595      H1602   1.083       .  S
C1596      C1597   1.413       .  A
C1597      C1598   1.407       .  A
C1597      C1604   1.518       .  S
C1598      C1599   1.406       .  A
C1598      H1603   1.083       .  S
C1600      C1601   1.519       .  S
C1601      F1605   1.385       .  S
C1601      F1606   1.383       .  S
C1601      F1607   1.382       .  S
C1604      F1608   1.383       .  S
C1604      F1609   1.382       .  S
C1604      F1610   1.385       .  S
C1611      C1612   1.401       .  A
C1611      C1616   1.408       .  A
C1611      H1618   1.083       .  S
C1613      C1614   1.408       .  A
C1613      C1620   1.516       .  S
C1614      H1619   1.083       .  S
C1615      C1616   1.421       .  A
C1616      C1617   1.519       .  S
C1617      F1621   1.385       .  S
C1617      F1622   1.383       .  S
C1617      F1623   1.382       .  S
C1620      F1624   1.384       .  S
C1620      F1871   1.379       .  S
C1620      F1626   1.384       .  S
F1625      C1866   1.381       .  S
C1627      C1632   1.409       .  A
C1627      H1634   1.082       .  S
C1628      C1629   1.421       .  A
C1629      C1630   1.405       .  A
C1629      C1636   1.521       .  S
C1630      C1631   1.407       .  A
C1630      H1635   1.082       .  S
C1632      C1633   1.519       .  S
C1633      F1637   1.385       .  S
C1633      F1638   1.383   1_655  S
C1633      F1639   1.382       .  S
C1636      F1640   1.384       .  S
C1636      F1641   1.382       .  S
C1636      F1642   1.385       .  S
C1643      C1648   1.409       .  A
C1643      H1650   1.084       .  S
C1644      C1645   1.410       .  A
C1645      C1646   1.402       .  A
C1645      C1652   1.517       .  S
C1646      C1647   1.406       .  A
C1646      H1651   1.082       .  S
C1648      C1649   1.518       .  S
C1649      F1653   1.385       .  S
C1649      F1654   1.381       .  S
C1649      F1655   1.384       .  S
C1652      F1656   1.382       .  S
C1652      F1657   1.383       .  S
C1652      F1658   1.385       .  S
C1659      C1660   1.415       .  A
C1659      C1664   1.405       .  A
C1659      H1666   1.082       .  S
C1660      C1661   1.431   1_565  A
C1661      C1662   1.404       .  A
C1662      C1663   1.394   1_545  A
C1662      H1667   1.083       .  S
C1663      C1664   1.408       .  A
C1664      C1665   1.520       .  S
C1665      F1669   1.384       .  S
C1665      F1670   1.384       .  S
C1665      F1671   1.382       .  S
C1668      F1672   1.382       .  S
C1675      C1676   1.396   1_545  A
C1675      C1680   1.402       .  A
C1675      H1682   1.084       .  S
C1676      C1677   1.408       .  A
C1677      C1678   1.400       .  A
C1678      C1679   1.413       .  A
C1678      H1683   1.081       .  S
C1679      C1680   1.429   1_565  A
C1680      C1681   1.523       .  S
C1681      F1685   1.385       .  S
C1681      F1686   1.382   1_545  S
C1684      F1689   1.383       .  S
C1684      F1690   1.385       .  S
C1691      C1692   1.411       .  A
C1691      C1696   1.403       .  A
C1691      H1698   1.081       .  S
C1692      C1693   1.431       .  A
C1693      C1694   1.412       .  A
C1693      C1700   1.521       .  S
C1694      C1695   1.402       .  A
C1694      H1699   1.083       .  S
C1695      C1696   1.414       .  A
C1696      C1697   1.518       .  S
C1697      F1947   1.383       .  S
C1697      F1948   1.383       .  S
C1700      F1704   1.384       .  S
C1700      F1705   1.381   1_565  S
C1700      F1706   1.385       .  S
F1701      C1943   1.382       .  S
F1702      C1943   1.383       .  S
C1707      C1712   1.406       .  A
C1707      H1714   1.083       .  S
C1708      C1709   1.415       .  A
C1709      C1710   1.406       .  A
C1709      C1716   1.517       .  S
C1710      C1711   1.402       .  A
C1710      H1715   1.083       .  S
C1712      C1713   1.519       .  S
C1713      F1717   1.385       .  S
C1713      F1718   1.384       .  S
C1713      F1719   1.382       .  S
C1716      F1720   1.383       .  S
C1716      F1721   1.382       .  S
C1716      F1722   1.385       .  S
O1723     Zr1735   2.454       .  S
O1723      C1725   1.290       .  A
O1724     Zr1761   2.408       .  S
C1725      C1957   1.480       .  S
O1726     Zr1738   2.447       .  S
O1727     Zr1762   2.419       .  S
O1727      C1728   1.285   1_655  A
O1729     Zr1738   2.435       .  S
O1729      C1731   1.289       .  A
C1731      C1922   1.493       .  S
O1732     Zr1735   2.441       .  S
O1733      C1734   1.285   1_655  A
Zr1735     O1736   2.435       .  S
Zr1735     O1737   2.435       .  S
Zr1735     O1741   2.366       .  S
Zr1735     O1742   2.371       .  S
O1736      H1779   0.990       .  S
O1737      H1778   0.990       .  S
O1737      H1782   0.990       .  S
Zr1738     O1739   2.435       .  S
Zr1738     O1740   2.435       .  S
O1739      H1780   0.990       .  S
O1739      H1783   0.990       .  S
O1740      H1773   0.990       .  S
O1742      H1769   0.966       .  S
O1743     Zr1755   2.435       .  S
O1743      C1745   1.288       .  A
O1746     Zr1758   2.448       .  S
O1747      C1748   1.286       .  A
C1748      C1842   1.483       .  S
O1749     Zr1758   2.456       .  S
O1749      C1751   1.289       .  A
O1750     Zr1762   2.413       .  S
O1752     Zr1755   2.435       .  S
O1753     Zr1761   2.419       .  S
O1753      C1754   1.287       .  A
C1754      C1877   1.496       .  S
Zr1755     O1756   2.436       .  S
Zr1755     O1757   2.433       .  S
O1756      H1776   0.990       .  S
O1756      H1781   0.990       .  S
O1757      H1777   0.990       .  S
Zr1758     O1759   2.434       .  S
Zr1758     O1760   2.433       .  S
Zr1758     O1764   2.374       .  S
Zr1758     O1763   2.377       .  S
O1759      H1775   0.990       .  S
O1760      H1774   0.990       .  S
O1760      H1784   0.989       .  S
Zr1761     O1767   2.382       .  S
Zr1762     O1768   2.377       .  S
O1763      H1771   0.966       .  S
O1766      H1770   0.966       .  S
O1767      H1772   0.967       .  S
C1785      C1893   1.493       .  S
C1785      N1786   1.358       .  A
C1785      N1790   1.359       .  A
N1786      C1787   1.358       .  A
C1787      C1829   1.494       .  S
C1787      N1788   1.357       .  A
N1788      C1789   1.361       .  A
C1789      C1874   1.491       .  S
C1789      N1790   1.356       .  A
C1791      C1861   1.481       .  S
C1791      N1792   1.359       .  A
C1791      N1796   1.356       .  A
N1792      C1793   1.360       .  A
C1793      C1826   1.493       .  S
C1793      N1794   1.362       .  A
N1794      C1795   1.360       .  A
C1795      C1845   1.478       .  S
C1795      N1796   1.356       .  A
C1797      C1938   1.469       .  S
C1797      N1798   1.354       .  A
C1797      N1802   1.359       .  A
N1798      C1799   1.354       .  A
C1799      C1810   1.473       .  S
C1799      N1800   1.358       .  A
N1800      C1801   1.358       .  A
C1801      C1954   1.473       .  S
C1801      N1802   1.358       .  A
C1803      C1909   1.479       .  S
C1803      N1804   1.355       .  A
C1803      N1808   1.356       .  A
N1804      C1805   1.357       .  A
C1805      C1925   1.483       .  S
C1805      N1806   1.356       .  A
N1806      C1807   1.356       .  A
C1807      C1813   1.473       .  S
C1807      N1808   1.356       .  A
C1809      C1810   1.402   1_545  A
C1809      C1814   1.405       .  A
C1809      H1816   1.083       .  S
C1810      C1811   1.417       .  A
C1811      C1812   1.404       .  A
C1811      C1818   1.520       .  S
C1812      C1813   1.403       .  A
C1812      H1817   1.083       .  S
C1813      C1814   1.416   1_565  A
C1814      C1815   1.519       .  S
C1815      F1821   1.381       .  S
C1818      F1822   1.382       .  S
C1818      F1823   1.383       .  S
C1818      F1824   1.385       .  S
C1825      C1826   1.405       .  A
C1825      C1830   1.410       .  A
C1825      H1832   1.083       .  S
C1827      C1828   1.409       .  A
C1827      C1834   1.521       .  S
C1828      H1833   1.083       .  S
C1829      C1830   1.423       .  A
C1830      C1831   1.521       .  S
C1831      F1835   1.384       .  S
C1831      F1836   1.384       .  S
C1831      F1837   1.383       .  S
C1834      F1838   1.382       .  S
C1834      F1839   1.384       .  S
C1834      F1840   1.385       .  S
C1841      C1846   1.408       .  A
C1841      H1848   1.083       .  S
C1842      C1843   1.421       .  A
C1843      C1844   1.409       .  A
C1843      C1850   1.517       .  S
C1844      C1845   1.401       .  A
C1844      H1849   1.083       .  S
C1846      C1847   1.520       .  S
C1847      F1851   1.385       .  S
C1847      F1852   1.384       .  S
C1847      F1853   1.382       .  S
C1850      F1854   1.383       .  S
C1850      F1855   1.380       .  S
C1850      F1856   1.385       .  S
C1857      C1858   1.401       .  A
C1857      C1862   1.408       .  A
C1857      H1864   1.083       .  S
C1859      C1860   1.409       .  A
C1859      C1866   1.518       .  S
C1860      H1865   1.083       .  S
C1861      C1862   1.419       .  A
C1862      C1863   1.519       .  S
C1863      F1867   1.384       .  S
C1863      F1868   1.384       .  S
C1863      F1869   1.382       .  S
C1866      F1870   1.384       .  S
C1866      F1872   1.385       .  S
C1873      C1878   1.406       .  A
C1873      H1880   1.082       .  S
C1874      C1875   1.422       .  A
C1875      C1876   1.406       .  A
C1875      C1882   1.522       .  S
C1876      C1877   1.408       .  A
C1876      H1881   1.082       .  S
C1878      C1879   1.522       .  S
C1879      F1883   1.385       .  S
C1879      F1884   1.383       .  S
C1879      F1885   1.383       .  S
C1882      F1886   1.383       .  S
C1882      F1887   1.382       .  S
C1882      F1888   1.385       .  S
C1889      C1894   1.409       .  A
C1889      H1896   1.083       .  S
C1890      C1891   1.421       .  A
C1891      C1892   1.408       .  A
C1891      C1898   1.521       .  S
C1892      C1893   1.408       .  A
C1892      H1897   1.082       .  S
C1894      C1895   1.522       .  S
C1895      F1899   1.385       .  S
C1895      F1900   1.384       .  S
C1895      F1901   1.383       .  S
C1898      F1902   1.381       .  S
C1898      F1903   1.380       .  S
C1898      F1904   1.385       .  S
C1905      C1906   1.408       .  A
C1905      C1910   1.400       .  A
C1905      H1912   1.079       .  S
C1906      C1907   1.425   1_565  A
C1907      C1908   1.406       .  A
C1908      C1909   1.403   1_545  A
C1908      H1913   1.083       .  S
C1909      C1910   1.416       .  A
C1910      C1911   1.522       .  S
C1911      F1915   1.385       .  S
C1911      F1916   1.383       .  S
C1911      F1917   1.382       .  S
C1914      F1918   1.382       .  S
C1921      C1922   1.408       .  A
C1921      C1926   1.402       .  A
C1921      H1928   1.082       .  S
C1922      C1923   1.425   1_565  A
C1923      C1924   1.407       .  A
C1924      C1925   1.405   1_545  A
C1924      H1929   1.083       .  S
C1925      C1926   1.417       .  A
C1926      C1927   1.522       .  S
C1927      F1931   1.385       .  S
C1927      F1932   1.384       .  S
C1930      F1935   1.383       .  S
C1930      F1936   1.384       .  S
C1937      C1938   1.395       .  A
C1937      C1942   1.404       .  A
C1937      H1944   1.084       .  S
C1938      C1939   1.413   1_565  A
C1939      C1940   1.406       .  A
C1939      C1946   1.520       .  S
C1940      C1941   1.412   1_545  A
C1940      H1945   1.082       .  S
C1941      C1942   1.429       .  A
C1942      C1943   1.521       .  S
C1946      F1950   1.382       .  S
C1946      F1951   1.383       .  S
C1946      F1952   1.385       .  S
C1953      C1958   1.404       .  A
C1953      H1960   1.084       .  S
C1954      C1955   1.414       .  A
C1955      C1956   1.409       .  A
C1955      C1962   1.517       .  S
C1956      C1957   1.405       .  A
C1956      H1961   1.083       .  S
C1958      C1959   1.519       .  S
C1959      F1963   1.384       .  S
C1959      F1964   1.384       .  S
C1959      F1965   1.381       .  S
C1962      F1966   1.383       .  S
C1962      F1967   1.383       .  S
C1962      F1968   1.385       .  S
