geometry optimzed in LAMMPS
_audit_creation_date              2020-12-01 
_audit_creation_method            'lammps2cif' 
_symmetry_space_group_name_H-M    'P1' 
_symmetry_Int_Tables_number       1 
_symmetry_cell_setting            triclinic 
loop_ 
_symmetry_equiv_pos_as_xyz 
  x,y,z 
_cell_length_a                    25.52402802 
_cell_length_b                    25.45093251772372 
_cell_length_c                    87.63729277758318 
_cell_angle_alpha                 89.9027706138627 
_cell_angle_beta                  90.06858073734193 
_cell_angle_gamma                 89.89312441952731 
loop_ 
_atom_site_label 
_atom_site_type_symbol 
_atom_site_fract_x 
_atom_site_fract_y 
_atom_site_fract_z 
_atom_site_charge 
C1          C  0.50193452  0.99631397  0.25070843    -0.02100
N2          N  0.07366821  0.53661637  0.00047844    -0.36200
N3          N  0.99215889  0.52708767  0.97725808    -0.56800
N4          N  0.91185605  0.52772703  0.00051958    -0.36200
N5          N  0.99272709  0.53340570  0.02365445    -0.56800
C6          C  0.10258061  0.52329287  0.98812563     0.27300
C7          C  0.10272468  0.52578630  0.01305043     0.27300
C8          C  0.88376873  0.51242042  0.98822299     0.27300
C9          C  0.88427833  0.51424471  0.01308923     0.27300
C10         C  0.03404796  0.53821051  0.96841983     0.36000
C11         C  0.94932211  0.53467038  0.96842513     0.36000
C12         C  0.03458190  0.54557629  0.03238288     0.36000
C13         C  0.94997168  0.54159358  0.03238517     0.36000
C14         C  0.15113693  0.50498860  0.99287791    -0.21500
C15         C  0.15119100  0.50645102  0.00861776    -0.21500
C16         C  0.83746886  0.48924779  0.99299367    -0.21500
C17         C  0.83786869  0.49022305  0.00873219    -0.21500
C18         C  0.01776073  0.55313736  0.95394837    -0.22600
C19         C  0.96403880  0.55097388  0.95395794    -0.22600
C20         C  0.01837182  0.56226817  0.04666859    -0.22600
C21         C  0.96466311  0.55992969  0.04665436    -0.22600
C22         C  0.08668745  0.52918216  0.97271126    -0.17900
C23         C  0.08690385  0.53432188  0.02835033    -0.17900
C24         C  0.89870118  0.52644345  0.02827069    -0.17900
C25         C  0.89755591  0.52253542  0.97288435    -0.17900
H26         H  0.18311690  0.49172517  0.98575120     0.15000
H27         H  0.18324610  0.49453249  0.01594855     0.15000
H28         H  0.80642609  0.47384194  0.98587371     0.15000
H29         H  0.80712464  0.47574054  0.01611201     0.15000
H30         H  0.04213564  0.56333013  0.94429248     0.13300
H31         H  0.93878659  0.55935670  0.94432360     0.13300
H32         H  0.04280529  0.57312055  0.05625882     0.13300
H33         H  0.93943456  0.56886205  0.05622914     0.13300
H34         H  0.03791296  0.55625980  0.00026676     0.26500
H35         H  0.94482837  0.55161952  0.00029329     0.26500
C36         C  0.51104791  0.00677161  0.75034604    -0.02100
C37         C  0.99287885  0.49912955  0.75036085    -0.02100
N38         N  0.46748309  0.92051087  0.99896464    -0.36200
N39         N  0.46584471  0.00510538  0.97670113    -0.56800
N40         N  0.46009976  0.08172428  0.00099772    -0.36200
N41         N  0.46607843  0.99718871  0.02330632    -0.56800
C42         C  0.48108066  0.89427401  0.98616088     0.27300
C43         C  0.48087921  0.88985498  0.01098331     0.27300
C44         C  0.47214617  0.11291003  0.98899064     0.27300
C45         C  0.47207834  0.10870816  0.01379660     0.27300
C46         C  0.45826409  0.96372769  0.96733819     0.36000
C47         C  0.45436581  0.04852388  0.96846858     0.36000
C48         C  0.45921401  0.95298940  0.03162296     0.36000
C49         C  0.45561726  0.03789070  0.03270680     0.36000
C50         C  0.50292613  0.84615372  0.99007598    -0.21500
C51         C  0.50277291  0.84335651  0.00576129    -0.21500
C52         C  0.49161993  0.16041308  0.99421963    -0.21500
C53         C  0.49142988  0.15782278  0.00990362    -0.21500
C54         C  0.44156308  0.98087552  0.95311449    -0.22600
C55         C  0.43911826  0.03469576  0.95383016    -0.22600
C56         C  0.44416697  0.96569669  0.04636559    -0.22600
C57         C  0.44201065  0.01955422  0.04705880    -0.22600
C58         C  0.47112332  0.91127501  0.97106571    -0.17900
C59         C  0.47109171  0.90172125  0.02647642    -0.17900
C60         C  0.46303513  0.09124682  0.02886759    -0.17900
C61         C  0.46322914  0.10040600  0.97350029    -0.17900
H62         H  0.51709012  0.81597462  0.98242439     0.15000
H63         H  0.51674383  0.81061677  0.01254219     0.15000
H64         H  0.50413980  0.19368499  0.98744696     0.15000
H65         H  0.50382340  0.18871342  0.01756956     0.15000
H66         H  0.43329106  0.95717790  0.94315865     0.13300
H67         H  0.42856224  0.06073615  0.94453883     0.13300
H68         H  0.43656146  0.93899959  0.05572898     0.13300
H69         H  0.43251687  0.04260142  0.05705235     0.13300
H70         H  0.44498602  0.95451658  0.99941961     0.26500
H71         H  0.43954169  0.04653590  0.00053660     0.26500
C72         C  0.65206127  0.52077980  0.88313378     0.42800
N73         N  0.60146085  0.49178421  0.86556944     0.01700
C74         C  0.44244099  0.64119479  0.81775699    -0.06200
H75         H  0.39660456  0.64822204  0.87600144     0.07200
C76         C  0.35444128  0.46116036  0.87581894    -0.06500
Co77       Co  0.55591785  0.57891246  0.84678757     0.74200
N78         N  0.45803861  0.61597005  0.86195999    -0.25700
Co79       Co  0.42000670  0.56958387  0.84585064     0.74100
C80         C  0.33005119  0.50889076  0.88182426     0.42900
N81         N  0.47218773  0.40070243  0.86649303     0.01300
N82         N  0.38052080  0.52901008  0.86308230     0.01400
N83         N  0.53046206  0.64754675  0.81897325    -0.46500
H84         H  0.63598249  0.60681758  0.87640927     0.07200
N85         N  0.50962482  0.61914370  0.86253834     0.01700
N86         N  0.38342901  0.52070147  0.82993302     0.01500
C87         C  0.32916520  0.49029629  0.81342250     0.43100
N88         N  0.52376478  0.40410817  0.86693280    -0.25200
C89         C  0.63533904  0.55337249  0.82094655    -0.06100
N90         N  0.63271319  0.47653297  0.87681955    -0.46300
N91         N  0.34838846  0.53502147  0.81954663    -0.46500
C92         C  0.66196308  0.50621020  0.81540611     0.42800
N93         N  0.51240617  0.61370162  0.82919770     0.01700
N94         N  0.52730276  0.39611793  0.83362902    -0.25200
N95         N  0.59854164  0.54338377  0.86429059    -0.25700
N96         N  0.47576705  0.39163594  0.83347320     0.01300
H97         H  0.58895860  0.35318088  0.82230914     0.07200
H98         H  0.34825358  0.40491578  0.82009655     0.07300
N99         N  0.46087315  0.60955056  0.82879159    -0.25700
N100        N  0.38463357  0.47748143  0.86422686    -0.25300
N101        N  0.60502222  0.48445378  0.83239828     0.01700
C102        C  0.48314642  0.66500875  0.88151747     0.43100
C103        C  0.54093840  0.37775941  0.87926765    -0.06600
N104        N  0.38792967  0.46915090  0.83108032    -0.25300
H105        H  0.34893858  0.42073770  0.87927279     0.07300
N106        N  0.52635244  0.64823417  0.87408248    -0.46600
H107        H  0.58156917  0.37151600  0.88228392     0.07200
C108        C  0.50257019  0.33353089  0.81757762     0.42900
C109        C  0.62940513  0.56519740  0.87491242    -0.06100
Co110      Co  0.56510590  0.44334636  0.84963148     0.73800
N111        N  0.45257773  0.37287652  0.87790002    -0.46300
C112        C  0.48871700  0.66611541  0.81112875     0.43200
N113        N  0.64139654  0.46513575  0.82316750    -0.46300
Co114      Co  0.42958066  0.43407436  0.84879158     0.73900
C115        C  0.35574571  0.44661370  0.82097013    -0.06600
C116        C  0.43781538  0.64433597  0.87338132    -0.06100
N117        N  0.60091930  0.53608663  0.83133559    -0.25700
N118        N  0.34834755  0.54936927  0.87338458    -0.46400
H119        H  0.40156843  0.65042330  0.81585651     0.07200
C120        C  0.54768582  0.36144060  0.82376671    -0.06600
Cl121      Cl  0.49271034  0.50645540  0.84770663    -0.49600
C122        C  0.49341912  0.35772531  0.88662180     0.43000
H123        H  0.64393439  0.59419357  0.81860198     0.07200
N124        N  0.45935027  0.35420144  0.82413655    -0.46300
C125        C  0.65358182  0.50325077  0.18681825     0.42800
N126        N  0.60255377  0.47803518  0.16867265     0.01700
C127        C  0.43897402  0.63107579  0.12381477    -0.06200
H128        H  0.40104148  0.65172373  0.18037311     0.07200
C129        C  0.35465059  0.44729438  0.18085816    -0.06500
Co130      Co  0.55510733  0.56935479  0.15203175     0.74200
N131        N  0.46020103  0.60635367  0.16880719    -0.25700
Co132      Co  0.41957490  0.56201804  0.15273138     0.74100
C133        C  0.32937962  0.49346407  0.18765843     0.42900
N134        N  0.47290585  0.38723880  0.16944789     0.01300
N135        N  0.38208441  0.51799358  0.16975530     0.01400
N136        N  0.52747543  0.63434085  0.12348002    -0.46500
H137        H  0.63637704  0.59031310  0.18181196     0.07200
N138        N  0.51179493  0.60945565  0.16849894     0.01700
N139        N  0.38090242  0.51722011  0.13642254     0.01500
C140        C  0.33549457  0.49321354  0.11707455     0.43100
N141        N  0.52454208  0.38976067  0.16898799    -0.25200
C142        C  0.62640394  0.54812026  0.12406103    -0.06100
N143        N  0.63616515  0.46069752  0.17908595    -0.46300
N144        N  0.35180432  0.53539403  0.12506547    -0.46500
C145        C  0.64708501  0.50198924  0.11629220     0.42800
N146        N  0.51007631  0.60644847  0.13521612     0.01700
N147        N  0.52159979  0.39085502  0.13566855    -0.25200
N148        N  0.59809203  0.52975782  0.16876546    -0.25700
N149        N  0.47001422  0.38799898  0.13631500     0.01300
H150        H  0.57835309  0.35702979  0.12020664     0.07200
H151        H  0.34995739  0.40554658  0.12226271     0.07300
N152        N  0.45845993  0.60380927  0.13563372    -0.25700
N153        N  0.38600191  0.46631101  0.16992284    -0.25300
N154        N  0.60019029  0.47722575  0.13525890     0.01700
C155        C  0.48849100  0.66812355  0.18477402     0.43100
C156        C  0.54412114  0.35579199  0.17923138    -0.06600
N157        N  0.38398716  0.46551027  0.13656043    -0.25300
H158        H  0.34752137  0.40600066  0.18284302     0.07300
N159        N  0.53018263  0.64614288  0.17775597    -0.46600
H160        H  0.58515718  0.34624606  0.18063338     0.07200
C161        C  0.49005491  0.34157630  0.11687668     0.42900
C162        C  0.62866264  0.54909610  0.17985654    -0.06100
Co163      Co  0.56322564  0.43312348  0.15215603     0.73800
N164        N  0.45568950  0.35253307  0.17953974    -0.46300
C165        C  0.48481869  0.65077019  0.11564234     0.43200
N166        N  0.62981429  0.45930534  0.12396898    -0.46300
Co167      Co  0.42756214  0.42606203  0.15314751     0.73900
C168        C  0.35609935  0.44663913  0.12479413    -0.06600
C169        C  0.44190139  0.64194231  0.17873647    -0.06100
N170        N  0.59738212  0.52896213  0.13547868    -0.25700
N171        N  0.34836998  0.53566181  0.18004142    -0.46400
H172        H  0.39783998  0.63589956  0.12119198     0.07200
C173        C  0.53803442  0.36290666  0.12357954    -0.06600
Cl174      Cl  0.49141589  0.49764544  0.15260190    -0.49600
C175        C  0.49834963  0.33150374  0.18635231     0.43000
H176        H  0.63310911  0.58927067  0.12174042     0.07200
N177        N  0.44968081  0.35899236  0.12532232    -0.46300
C178        C  0.01652883  0.83125956  0.68662491     0.42800
N179        N  0.99190658  0.88803396  0.66991461     0.01700
C180        C  0.14533402  0.05123274  0.62548354    -0.06200
H181        H  0.15831657  0.09284106  0.68237939     0.07200
C182        C  0.95503005  0.13932627  0.67939227    -0.06500
Co183      Co  0.08320255  0.93578812  0.65365559     0.74200
N184        N  0.11612353  0.03221777  0.67043592    -0.25700
Co185      Co  0.07293356  0.07147046  0.65348593     0.74100
C186        C  0.00017841  0.16522915  0.68631629     0.42900
N187        N  0.89899860  0.01765889  0.66934338     0.01300
N188        N  0.02698213  0.10970696  0.66965683     0.01400
N189        N  0.15167711  0.96257470  0.62620774    -0.46500
H190        H  0.10360318  0.84794672  0.68178024     0.07200
N191        N  0.12087172  0.98051372  0.67032804     0.01700
N192        N  0.02881763  0.10824749  0.63640589     0.01500
C193        C  0.00480883  0.15157371  0.61667699     0.43100
N194        N  0.90328330  0.96597734  0.66989270    -0.25200
C195        C  0.06452385  0.86819340  0.62471516    -0.06100
N196        N  0.97432483  0.85213161  0.67955816    -0.46300
N197        N  0.04690088  0.13797569  0.62515365    -0.46500
C198        C  0.01911746  0.84770018  0.61663798     0.42800
N199        N  0.12115586  0.98056973  0.63722170     0.01700
N200        N  0.90384091  0.96388862  0.63641583    -0.25200
N201        N  0.04349078  0.89166379  0.67001044    -0.25700
N202        N  0.89996718  0.01551287  0.63594391     0.01300
H203        H  0.87113529  0.90210929  0.62260566     0.07200
H204        H  0.91786064  0.13318158  0.62075258     0.07300
N205        N  0.11699808  0.03221542  0.63711089    -0.25700
N206        N  0.97540950  0.10596320  0.66917419    -0.25300
N207        N  0.99304242  0.88878343  0.63658730     0.01700
C208        C  0.17617836  0.00585899  0.68733587     0.43100
C209        C  0.87255814  0.94825220  0.68124938    -0.06600
N210        N  0.97738238  0.10290082  0.63593796    -0.25300
H211        H  0.91374636  0.14742724  0.68089061     0.07300
N212        N  0.15706644  0.96333525  0.67999384    -0.46600
H213        H  0.86476761  0.90738752  0.68375775     0.07200
C214        C  0.85126532  0.98875951  0.61746958     0.42900
C215        C  0.06258415  0.85722286  0.68019258    -0.06100
Co216      Co  0.94727589  0.92577880  0.65327700     0.73800
N217        N  0.86605987  0.03655537  0.67963036    -0.46300
C218        C  0.16858601  0.00492548  0.61839608     0.43200
N219        N  0.97612213  0.86118023  0.62474099    -0.46300
Co220      Co  0.93718201  0.06121068  0.65257644     0.73900
C221        C  0.95869219  0.12909674  0.62384472    -0.06600
C222        C  0.14931150  0.05166208  0.68088569    -0.06100
N223        N  0.04457604  0.89332299  0.63680530    -0.25700
N224        N  0.04341527  0.14492699  0.67969255    -0.46400
H225        H  0.14989085  0.09227677  0.62257193     0.07200
C226        C  0.87483393  0.94349402  0.62512891    -0.06600
Cl227      Cl  0.01016021  0.99856312  0.65335310    -0.49600
C228        C  0.84829225  0.99536297  0.68783159     0.43000
H229        H  0.10568074  0.86448934  0.62200625     0.07200
N230        N  0.86908027  0.03213854  0.62472075    -0.46300
C231        C  0.16471385  0.00230380  0.31306960     0.42800
N232        N  0.10974302  0.02246533  0.33069685     0.01700
C233        C  0.95972408  0.85524048  0.37493359    -0.06200
H234        H  0.91145280  0.84994337  0.31772213     0.07200
C235        C  0.85957366  0.04860697  0.32252603    -0.06500
Co236      Co  0.06843425  0.92679898  0.34633338     0.74200
N237        N  0.97161513  0.89115829  0.33010034    -0.25700
Co238      Co  0.93280458  0.93031001  0.34767697     0.74100
C239        C  0.83585589  0.00298473  0.31511575     0.42900
N240        N  0.97768256  0.11035060  0.33338007     0.01300
N241        N  0.89111279  0.97680252  0.33209059     0.01400
N242        N  0.04833896  0.85589569  0.37402923    -0.46500
H243        H  0.15108022  0.91395904  0.31676040     0.07200
N244        N  0.02324310  0.88914645  0.32965065     0.01700
N245        N  0.89589358  0.97047754  0.36531337     0.01500
C246        C  0.84996618  0.98977548  0.38484809     0.43100
N247        N  0.02924440  0.10785649  0.33283810    -0.25200
C248        C  0.14494443  0.94562143  0.37363725    -0.06100
N249        N  0.14365296  0.04280806  0.32091862    -0.46300
N250        N  0.86788326  0.94929935  0.37644324    -0.46500
C251        C  0.16580158  0.99160256  0.38145975     0.42800
N252        N  0.02765265  0.88516566  0.36303962     0.01700
N253        N  0.03312081  0.10145089  0.36601430    -0.25200
N254        N  0.10761212  0.97071210  0.32986289    -0.25700
N255        N  0.98148358  0.10251078  0.36677181     0.01300
H256        H  0.09381191  0.13421612  0.38029697     0.07200
H257        H  0.86087048  0.07851101  0.38108495     0.07300
N258        N  0.97594398  0.88582037  0.36337784    -0.25700
N259        N  0.89315800  0.02860541  0.33278953    -0.25300
N260        N  0.11322696  0.01704406  0.36391409     0.01700
C261        C  0.99842155  0.83642785  0.31183430     0.43100
C262        C  0.04652774  0.14259854  0.32254549    -0.06600
N263        N  0.89700909  0.02229407  0.36594116    -0.25300
H264        H  0.84917067  0.08968020  0.32154392     0.07300
N265        N  0.04077177  0.85677798  0.31896878    -0.46600
H266        H  0.08734207  0.15139105  0.32052632     0.07200
C267        C  0.00696494  0.14475993  0.38662171     0.42900
C268        C  0.14039934  0.95442715  0.31890382    -0.06100
Co269      Co  0.07196896  0.06289219  0.34832392     0.73800
N270        N  0.95826518  0.14613184  0.32390243    -0.46300
C271        C  0.00784103  0.83617896  0.38208914     0.43200
N272        N  0.14422604  0.03448234  0.37492803    -0.46300
Co273      Co  0.93646711  0.06678408  0.34970219     0.73900
C274        C  0.86851370  0.03819501  0.37789400    -0.06600
C275        C  0.95239113  0.85958498  0.31920629    -0.06100
N276        N  0.11255888  0.96528846  0.36299147    -0.25700
N277        N  0.85678224  0.95993715  0.32186069    -0.46400
H278        H  0.91941548  0.84801677  0.37807928     0.07200
C279        C  0.05270402  0.12790360  0.37794325    -0.06600
Cl280      Cl  0.00240513  0.99670736  0.34795247    -0.49600
C281        C  0.99933995  0.16826846  0.31656319     0.43000
H282        H  0.15308588  0.90443227  0.37556547     0.07200
N283        N  0.96411633  0.12819205  0.37893281    -0.46300
N284        N  0.00600006  0.41980602  0.50249892    -0.36200
N285        N  0.00920954  0.50647751  0.52444101    -0.56800
N286        N  0.01913243  0.58092694  0.49955254    -0.36200
N287        N  0.02141257  0.49388055  0.47766361    -0.56800
C288        C  0.00915392  0.39228120  0.51569223     0.27300
C289        C  0.01385616  0.38559904  0.49088494     0.27300
C290        C  0.02857941  0.61324159  0.51150622     0.27300
C291        C  0.03366839  0.60666105  0.48673380     0.27300
C292        C  0.99861728  0.46670851  0.53418836     0.36000
C293        C  0.00505634  0.55144563  0.53254643     0.36000
C294        C  0.01318254  0.44996974  0.46931214     0.36000
C295        C  0.01942462  0.53472105  0.46778777     0.36000
C296        C  0.01788590  0.33966929  0.51238003    -0.21500
C297        C  0.02056882  0.33545210  0.49676869    -0.21500
C298        C  0.04889159  0.66031704  0.50618431    -0.21500
C299        C  0.05200211  0.65619783  0.49054239    -0.21500
C300        C  0.98813949  0.48654349  0.54860205    -0.22600
C301        C  0.99187302  0.54015689  0.54754035    -0.22600
C302        C  0.00750665  0.46302375  0.45402563    -0.22600
C303        C  0.01086981  0.51657483  0.45309021    -0.22600
C304        C  0.00192803  0.41258029  0.53061430    -0.17900
C305        C  0.01277778  0.39796440  0.47510610    -0.17900
C306        C  0.02733959  0.58810356  0.47162773    -0.17900
C307        C  0.01743433  0.60218965  0.52701003    -0.17900
H308        H  0.02129047  0.30731895  0.52034909     0.15000
H309        H  0.02654458  0.29936250  0.49049661     0.15000
H310        H  0.05995214  0.69427831  0.51286233     0.15000
H311        H  0.06580847  0.68639204  0.48282764     0.15000
H312        H  0.97947269  0.46469702  0.55889477     0.13300
H313        H  0.98674213  0.56757500  0.55685234     0.13300
H314        H  0.00159555  0.43689657  0.44445848     0.13300
H315        H  0.00775908  0.53940491  0.44269967     0.13300
H316        H  0.99405466  0.45846634  0.50144674     0.26500
H317        H  0.99826690  0.54609224  0.49988721     0.26500
N318        N  0.42216121  0.98894060  0.49976314    -0.36200
N319        N  0.50261526  0.99272794  0.52364040    -0.56800
N320        N  0.58400727  0.98870099  0.50065799    -0.36200
N321        N  0.50371632  0.99095799  0.47678869    -0.56800
C322        C  0.39236102  0.00035836  0.51207966     0.27300
C323        C  0.39290289  0.99909629  0.48718969     0.27300
C324        C  0.61334705  0.99928333  0.51318385     0.27300
C325        C  0.61400595  0.99846488  0.48824917     0.27300
C326        C  0.45960886  0.98419471  0.53227746     0.36000
C327        C  0.54451118  0.98362671  0.53275860     0.36000
C328        C  0.46178827  0.98387489  0.46757364     0.36000
C329        C  0.54654626  0.98359824  0.46800038     0.36000
C330        C  0.34327687  0.01713109  0.50728506    -0.21500
C331        C  0.34358498  0.01618766  0.49157100    -0.21500
C332        C  0.66281751  0.01540352  0.50865629    -0.21500
C333        C  0.66330831  0.01464677  0.49292756    -0.21500
C334        C  0.47425765  0.96976714  0.54694264    -0.22600
C335        C  0.52799289  0.96922581  0.54723050    -0.22600
C336        C  0.47806981  0.97248919  0.45286444    -0.22600
C337        C  0.53168895  0.97250228  0.45311589    -0.22600
C338        C  0.40734882  0.99306033  0.52750172    -0.17900
C339        C  0.40903694  0.99167711  0.47189779    -0.17900
C340        C  0.59893873  0.99020956  0.47287547    -0.17900
C341        C  0.59736532  0.99214789  0.52855148    -0.17900
H342        H  0.31045826  0.02845310  0.51437304     0.15000
H343        H  0.31117465  0.02688920  0.48421291     0.15000
H344        H  0.69537106  0.02617880  0.51592337     0.15000
H345        H  0.69632403  0.02466874  0.48575941     0.15000
H346        H  0.44885573  0.96102523  0.55649340     0.13300
H347        H  0.55213826  0.96009611  0.55704661     0.13300
H348        H  0.45386128  0.96581253  0.44290838     0.13300
H349        H  0.55680525  0.96584226  0.44336545     0.13300
H350        H  0.45813320  0.97020479  0.49998595     0.26500
H351        H  0.54790116  0.97033447  0.50056139     0.26500
C352        C  0.98949265  0.49630320  0.24955008    -0.02100
C353        C  0.98778007  0.55154582  0.25777959    -0.11600
C354        C  0.94784859  0.56626631  0.26841595     0.03900
C355        C  0.94975336  0.61486690  0.27595094    -0.12100
C356        C  0.98932148  0.65141385  0.27298611     0.18700
C357        C  0.02611213  0.63981616  0.26159762    -0.09200
C358        C  0.02379279  0.59196520  0.25380726    -0.02100
H359        H  0.92070562  0.62365534  0.28459038     0.05300
C360        C  0.99241140  0.70042409  0.28222248     0.20700
H361        H  0.05070924  0.58768393  0.24442026     0.10400
C362        C  0.03694127  0.70955370  0.29123746    -0.15500
C363        C  0.04080348  0.75405034  0.30057860     0.03400
C364        C  0.99865273  0.79026709  0.30135934    -0.10800
C365        C  0.95428416  0.78116877  0.29218851    -0.00900
C366        C  0.95102327  0.73711727  0.28264862    -0.06000
H367        H  0.06881624  0.68137433  0.29114560     0.06400
H368        H  0.92186875  0.80867273  0.29233922     0.09800
Br369      Br  0.08013143  0.68847756  0.25592634    -0.05700
Br370      Br  0.89121495  0.52221794  0.27469357    -0.02700
Br371      Br  0.10404318  0.76065791  0.31231545     0.00200
Br372      Br  0.88987740  0.72979675  0.27006027    -0.04200
C373        C  0.99730314  0.21536193  0.30637558    -0.11600
C374        C  0.95028635  0.24272388  0.30284413     0.03900
C375        C  0.95174243  0.28706582  0.29332765    -0.12100
C376        C  0.99913849  0.30541983  0.28733880     0.18700
C377        C  0.04581662  0.27895586  0.29088154    -0.09200
C378        C  0.04459702  0.23423849  0.30014179    -0.02100
H379        H  0.91571496  0.30784956  0.29072776     0.05300
C380        C  0.99946448  0.35351910  0.27790628     0.20700
H381        H  0.08133235  0.21469751  0.30250976     0.10400
C382        C  0.00404086  0.40228164  0.28503473    -0.15500
C383        C  0.00463000  0.44913638  0.27660685     0.03400
C384        C  0.99490462  0.44803211  0.26049503    -0.10800
C385        C  0.99655653  0.39772412  0.25348867    -0.00900
C386        C  0.99789505  0.35121752  0.26196757    -0.06000
H387        H  0.00955264  0.40361926  0.29729353     0.06400
H388        H  0.99333325  0.39431106  0.24124686     0.09800
Br389      Br  0.11233620  0.30352627  0.28362095    -0.05700
Br390      Br  0.88273689  0.22376685  0.31073735    -0.02700
Br391      Br  0.02958573  0.50801264  0.28827482     0.00200
Br392      Br  0.99461521  0.28550041  0.25131934    -0.04200
C393        C  0.00654117  0.17915451  0.40022593    -0.11600
C394        C  0.97419079  0.16884269  0.41291185     0.03900
C395        C  0.97576318  0.20206251  0.42565469    -0.12100
C396        C  0.00839882  0.24645467  0.42590472     0.18700
C397        C  0.04062844  0.25676143  0.41318272    -0.09200
C398        C  0.03994982  0.22288122  0.40060897    -0.02100
H399        H  0.95129874  0.19329252  0.43542308     0.05300
C400        C  0.00800051  0.28181876  0.43939875     0.20700
H401        H  0.06479271  0.23149246  0.39090988     0.10400
C402        C  0.05430984  0.28939352  0.44780737    -0.15500
C403        C  0.05634143  0.32595630  0.45972811     0.03400
C404        C  0.01096229  0.35419987  0.46381953    -0.10800
C405        C  0.96403280  0.34464112  0.45594720    -0.00900
C406        C  0.96246624  0.30962521  0.44365955    -0.06000
H407        H  0.08952200  0.26811353  0.44471805     0.06400
H408        H  0.92916756  0.36680750  0.45884809     0.09800
Br409      Br  0.08413728  0.31811586  0.41202286    -0.05700
Br410      Br  0.92930385  0.10849298  0.41378298    -0.02700
Br411      Br  0.12251661  0.33831284  0.46947828     0.00200
Br412      Br  0.89855215  0.30520428  0.43218528    -0.04200
C413        C  0.01274349  0.79965814  0.39514238    -0.11600
C414        C  0.04982102  0.80779522  0.40685722     0.03900
C415        C  0.05282905  0.77257022  0.41910427    -0.12100
C416        C  0.01997842  0.72856042  0.41981700     0.18700
C417        C  0.98345553  0.71993160  0.40802626    -0.09200
C418        C  0.97964169  0.75572581  0.39591862    -0.02100
H419        H  0.08061904  0.77979456  0.42821580     0.05300
C420        C  0.02322270  0.69324410  0.43321689     0.20700
H421        H  0.95142676  0.74862290  0.38691339     0.10400
C422        C  0.98128873  0.69174788  0.44354385    -0.15500
C423        C  0.98284730  0.65873343  0.45629727     0.03400
C424        C  0.02719456  0.62708944  0.45899611    -0.10800
C425        C  0.06955259  0.62912648  0.44881686    -0.00900
C426        C  0.06771016  0.66169971  0.43593943    -0.06000
H427        H  0.94695186  0.71590870  0.44155624     0.06400
H428        H  0.10338064  0.60414165  0.45067638     0.09800
Br429      Br  0.93974385  0.65865346  0.40766291    -0.05700
Br430      Br  0.09505033  0.86793877  0.40730373    -0.02700
Br431      Br  0.92253860  0.65601322  0.46933335     0.00200
Br432      Br  0.12532522  0.65953532  0.42191888    -0.04200
C433        C  0.36899453  0.99390325  0.45955109    -0.11600
C434        C  0.36536297  0.03768609  0.44973267     0.03900
C435        C  0.33068435  0.03680886  0.43736511    -0.12100
C436        C  0.29961678  0.99254399  0.43451102     0.18700
C437        C  0.30291125  0.94888237  0.44435832    -0.09200
C438        C  0.33723238  0.94993681  0.45684243    -0.02100
H439        H  0.32846903  0.07046190  0.42980254     0.05300
C440        C  0.26491060  0.99236910  0.42100065     0.20700
H441        H  0.34019435  0.91588898  0.46423054     0.10400
C442        C  0.28232307  0.96879993  0.40746344    -0.15500
C443        C  0.25072972  0.96881560  0.39439081     0.03400
C444        C  0.20084754  0.99250192  0.39480488    -0.10800
C445        C  0.18395035  0.01712203  0.40823571    -0.00900
C446        C  0.21549366  0.01696155  0.42131638    -0.06000
H447        H  0.32080807  0.95083042  0.40704053     0.06400
H448        H  0.14574304  0.03570234  0.40862740     0.09800
Br449      Br  0.26195691  0.88687359  0.44097393    -0.05700
Br450      Br  0.40800322  0.09888041  0.45258273    -0.02700
Br451      Br  0.27874582  0.93941968  0.37596881     0.00200
Br452      Br  0.18939186  0.04987361  0.43945269    -0.04200
C453        C  0.81243513  0.98502947  0.39737973    -0.11600
C454        C  0.75987124  0.00036750  0.39554569     0.03900
C455        C  0.72600332  0.99912975  0.40806728    -0.12100
C456        C  0.74417949  0.98346493  0.42251400     0.18700
C457        C  0.79651000  0.96652152  0.42416811    -0.09200
C458        C  0.83012970  0.96719499  0.41159240    -0.02100
H459        H  0.68558427  0.01122927  0.40660524     0.05300
C460        C  0.70839903  0.98599228  0.43575650     0.20700
H461        H  0.87065371  0.95537421  0.41302100     0.10400
C462        C  0.69412843  0.93940088  0.44324288    -0.15500
C463        C  0.66039398  0.94055248  0.45578718     0.03400
C464        C  0.64006883  0.98877884  0.46094011    -0.10800
C465        C  0.65426539  0.03540889  0.45349633    -0.00900
C466        C  0.68829011  0.03436108  0.44099606    -0.06000
H467        H  0.70895519  0.90199725  0.43922059    -0.00800
H468        H  0.63809148  0.07254962  0.45727652     0.09800
Br469      Br  0.82481958  0.94521553  0.44350852    -0.05700
Br470      Br  0.73281151  0.02258716  0.37612799    -0.02700
Br471      Br  0.64123358  0.87531994  0.46521653     0.00200
Br472      Br  0.70667877  0.09997906  0.43160268    -0.04200
C473        C  0.36647993  0.99672087  0.53951697    -0.11600
C474        C  0.33022413  0.95590772  0.54192277     0.03900
C475        C  0.29527329  0.95868407  0.55418490    -0.12100
C476        C  0.29586184  0.00182746  0.56412526     0.18700
C477        C  0.33182496  0.04286053  0.56163473    -0.09200
C478        C  0.36652254  0.04020573  0.54933640    -0.02100
H479        H  0.26817069  0.92667163  0.55614933     0.05300
C480        C  0.26140287  0.00161683  0.57764416     0.20700
H481        H  0.39474879  0.07142772  0.54766428     0.10400
C482        C  0.27242822  0.96658596  0.58958482    -0.15500
C483        C  0.24241969  0.96675043  0.60291652     0.03400
C484        C  0.20075971  0.00284922  0.60446646    -0.10800
C485        C  0.18939066  0.03747475  0.59241975    -0.00900
C486        C  0.21884243  0.03653289  0.57897884    -0.06000
H487        H  0.30516289  0.93962428  0.58862312     0.06400
H488        H  0.15686285  0.06469207  0.59333819     0.09800
Br489      Br  0.33738588  0.10148147  0.57529315    -0.05700
Br490      Br  0.32898504  0.89458543  0.52923944    -0.02700
Br491      Br  0.26247324  0.91916220  0.61893015     0.00200
Br492      Br  0.19856106  0.08224551  0.56256638    -0.04200
C493        C  0.81508406  0.98902251  0.60416192    -0.11600
C494        C  0.77473316  0.95145379  0.60241522     0.03900
C495        C  0.74221917  0.95289388  0.58951670    -0.12100
C496        C  0.74864225  0.99135858  0.57819903     0.18700
C497        C  0.78836099  0.02924345  0.58000273    -0.09200
C498        C  0.82095693  0.02796111  0.59290636    -0.02100
H499        H  0.71100822  0.92433376  0.58843048     0.05300
C500        C  0.71198995  0.99247874  0.56499048     0.20700
H501        H  0.85155935  0.05713638  0.59403777     0.10400
C502        C  0.67501723  0.03319478  0.56384350    -0.15500
C503        C  0.63831776  0.03430037  0.55193633     0.03400
C504        C  0.63784041  0.99390745  0.54091132    -0.10800
C505        C  0.67526629  0.95352115  0.54195662    -0.00900
C506        C  0.71206513  0.95253010  0.55385891    -0.06000
H507        H  0.67442543  0.06403570  0.57234789     0.06400
H508        H  0.67543304  0.92232301  0.53356302     0.09800
Br509      Br  0.80053309  0.08246518  0.56490613    -0.05700
Br510      Br  0.75851830  0.90003449  0.61773947    -0.02700
Br511      Br  0.58981146  0.09195722  0.55118865     0.00200
Br512      Br  0.76221682  0.89632494  0.55433154    -0.04200
C513        C  0.00075690  0.37452731  0.54345750    -0.11600
C514        C  0.95324499  0.35832668  0.55010115     0.03900
C515        C  0.95381255  0.32207117  0.56212676    -0.12100
C516        C  0.00133855  0.30146110  0.56754543     0.18700
C517        C  0.04870807  0.31689653  0.56068626    -0.09200
C518        C  0.04818611  0.35365844  0.54884229    -0.02100
H519        H  0.91720084  0.30996644  0.56727926     0.05300
C520        C  0.00111092  0.26365585  0.58030694     0.20700
H521        H  0.08480083  0.36549185  0.54363596     0.10400
C522        C  0.98703557  0.21132009  0.57754307    -0.15500
C523        C  0.98837657  0.17419414  0.58931954     0.03400
C524        C  0.00504567  0.18919686  0.60398935    -0.10800
C525        C  0.01891201  0.24154896  0.60677743    -0.00900
C526        C  0.01610041  0.27899548  0.59510699    -0.06000
H527        H  0.97524025  0.19934568  0.56619122     0.06400
H528        H  0.03040320  0.25360012  0.61814989     0.09800
Br529      Br  0.11470165  0.28732373  0.56679186    -0.05700
Br530      Br  0.88707445  0.38460215  0.54300546    -0.02700
Br531      Br  0.96840724  0.10322679  0.58480637     0.00200
Br532      Br  0.03058990  0.35100331  0.59995992    -0.04200
C533        C  0.02121992  0.64541483  0.53837578    -0.11600
C534        C  0.06544247  0.65017340  0.54790417     0.03900
C535        C  0.06518351  0.68631249  0.55992349    -0.12100
C536        C  0.02104064  0.71773615  0.56269249     0.18700
C537        C  0.97768184  0.71464501  0.55277204    -0.09200
C538        C  0.97802231  0.67862033  0.54070065    -0.02100
H539        H  0.09879790  0.68865504  0.56745044     0.05300
C540        C  0.01986130  0.75136291  0.57643930     0.20700
H541        H  0.94384689  0.67520506  0.53343163     0.10400
C542        C  0.04842711  0.79833927  0.57665238    -0.15500
C543        C  0.04837044  0.83057457  0.58959656     0.03400
C544        C  0.01902723  0.81591107  0.60257367    -0.10800
C545        C  0.99019062  0.76908557  0.60228181    -0.00900
C546        C  0.99109450  0.73646775  0.58944709    -0.06000
H547        H  0.07063738  0.81003977  0.56668596     0.06400
H548        H  0.96811633  0.75706000  0.61224231     0.09800
Br549      Br  0.91683139  0.75792218  0.55560798    -0.05700
Br550      Br  0.12591883  0.60630307  0.54527531    -0.02700
Br551      Br  0.08673115  0.89536249  0.58856705     0.00200
Br552      Br  0.95450772  0.67074341  0.59040767    -0.04200
C553        C  0.28212171  0.49369150  0.19774388    -0.11600
C554        C  0.25785996  0.54062517  0.20290252     0.03900
C555        C  0.21168162  0.53817856  0.21154941    -0.12100
C556        C  0.18889790  0.48986531  0.21535438     0.18700
C557        C  0.21364982  0.44320828  0.21074564    -0.09200
C558        C  0.25966871  0.44533565  0.20209290    -0.02100
H559        H  0.19310962  0.57429598  0.21524304     0.05300
C560        C  0.13877400  0.48892893  0.22388621     0.20700
H561        H  0.27732783  0.40858899  0.19867061     0.10400
C562        C  0.09220819  0.47733098  0.21618310    -0.15500
C563        C  0.04376131  0.47616170  0.22377068     0.03400
C564        C  0.04058492  0.49105532  0.23953013    -0.10800
C565        C  0.08913323  0.49736218  0.24726387    -0.00900
C566        C  0.13715437  0.49736293  0.23965053    -0.06000
H567        H  0.09394641  0.46725339  0.20418200     0.06400
H568        H  0.08955275  0.50454297  0.25941828     0.09800
Br569      Br  0.18608196  0.37561741  0.21616615    -0.05700
Br570      Br  0.28506566  0.60961835  0.19890254    -0.02700
Br571      Br  0.98899287  0.44404494  0.21188895     0.00200
Br572      Br  0.19974192  0.50814853  0.25135245    -0.04200
C573        C  0.70317570  0.50471946  0.19553172    -0.11600
C574        C  0.70770507  0.53360482  0.20918168     0.03900
C575        C  0.75586258  0.53608890  0.21681022    -0.12100
C576        C  0.79986187  0.50960793  0.21111881     0.18700
C577        C  0.79527373  0.48017294  0.19761114    -0.09200
C578        C  0.74724567  0.47801698  0.18990239    -0.02100
H579        H  0.75856228  0.55712213  0.22752275     0.05300
C580        C  0.84760788  0.50638901  0.22062595     0.20700
H581        H  0.74438745  0.45553735  0.17945063     0.10400
C582        C  0.85059278  0.46644975  0.23143201    -0.15500
C583        C  0.89366787  0.46095263  0.24118420     0.03400
C584        C  0.93789318  0.49597017  0.23977090    -0.10800
C585        C  0.93282617  0.53714423  0.22885504    -0.00900
C586        C  0.88872201  0.54243022  0.21944473    -0.06000
H587        H  0.81775646  0.43970920  0.23251409     0.06400
H588        H  0.96424077  0.56524243  0.22742760     0.09800
Br589      Br  0.85330389  0.44114148  0.18959164    -0.05700
Br590      Br  0.64826909  0.56559430  0.21872456    -0.02700
Br591      Br  0.88014679  0.40746845  0.25633465     0.00200
Br592      Br  0.88630578  0.59919628  0.20505905    -0.04200
C593        C  0.48428271  0.30756829  0.10339730    -0.11600
C594        C  0.44848311  0.26541501  0.10323448     0.03900
C595        C  0.44395325  0.23406200  0.09023237    -0.12100
C596        C  0.47484271  0.24374953  0.07734186     0.18700
C597        C  0.50954926  0.28665138  0.07731585    -0.09200
C598        C  0.51404663  0.31803584  0.09032612    -0.02100
H599        H  0.41745952  0.20084635  0.09035025     0.05300
C600        C  0.47280369  0.20616623  0.06457533     0.20700
H601        H  0.54018250  0.35120557  0.09015897     0.10400
C602        C  0.42851599  0.20480569  0.05508860    -0.15500
C603        C  0.42449176  0.16734174  0.04347518     0.03400
C604        C  0.46509775  0.13055105  0.04132807    -0.10800
C605        C  0.50908964  0.13169274  0.05090732    -0.00900
C606        C  0.51308814  0.16900953  0.06250890    -0.06000
H607        H  0.39693605  0.23267060  0.05680774     0.06400
H608        H  0.54033279  0.10334037  0.04934852     0.09800
Br609      Br  0.55122571  0.30385898  0.05980098    -0.05700
Br610      Br  0.40785103  0.24599338  0.12077243    -0.02700
Br611      Br  0.36251033  0.16669666  0.03106979     0.00200
Br612      Br  0.57325183  0.16650519  0.07565116    -0.04200
C613        C  0.47639514  0.85931656  0.03809007    -0.11600
C614        C  0.43943923  0.81849044  0.03927003     0.03900
C615        C  0.44301753  0.78226837  0.05126894    -0.12100
C616        C  0.48232107  0.78677927  0.06243222     0.18700
C617        C  0.52032838  0.82663906  0.06091702    -0.09200
C618        C  0.51728713  0.86216566  0.04876347    -0.02100
H619        H  0.41400011  0.75141342  0.05217945     0.05300
C620        C  0.48204664  0.75094136  0.07582051     0.20700
H621        H  0.54587468  0.89345719  0.04792985     0.10400
C622        C  0.52520782  0.71801027  0.07850717    -0.15500
C623        C  0.52737283  0.68543665  0.09138894     0.03400
C624        C  0.48513698  0.68467518  0.10182201    -0.10800
C625        C  0.44140740  0.71683512  0.09888284    -0.00900
C626        C  0.43963412  0.74983911  0.08610518    -0.06000
H627        H  0.55761054  0.71782888  0.07053083     0.06400
H628        H  0.40866688  0.71725966  0.10672486     0.09800
Br629      Br  0.57496636  0.83691674  0.07568054    -0.05700
Br630      Br  0.38153128  0.81279047  0.02539909    -0.02700
Br631      Br  0.58824358  0.64168497  0.09348199     0.00200
Br632      Br  0.37928190  0.79428988  0.08366255    -0.04200
C633        C  0.46788677  0.14239670  0.96175798    -0.11600
C634        C  0.43111457  0.18363036  0.96058355     0.03900
C635        C  0.43544790  0.22041940  0.94874616    -0.12100
C636        C  0.47551757  0.21608664  0.93787329     0.18700
C637        C  0.51222908  0.17504066  0.93907361    -0.09200
C638        C  0.50859899  0.13901149  0.95104757    -0.02100
H639        H  0.40682813  0.25174661  0.94779452     0.05300
C640        C  0.47793091  0.25360909  0.92504785     0.20700
H641        H  0.53678152  0.10720939  0.95177620     0.10400
C642        C  0.51400894  0.29490419  0.92558366    -0.15500
C643        C  0.51925755  0.32952788  0.91327397     0.03400
C644        C  0.48866822  0.32259539  0.90002135    -0.10800
C645        C  0.45147255  0.28192425  0.89970832    -0.00900
C646        C  0.44603009  0.24749903  0.91208480    -0.06000
H647        H  0.53802145  0.30030489  0.93566316     0.06400
H648        H  0.42711249  0.27635801  0.88971100     0.09800
Br649      Br  0.56606163  0.16498306  0.92409841    -0.05700
Br650      Br  0.37276756  0.18935971  0.97426615    -0.02700
Br651      Br  0.56535389  0.38790025  0.91585206     0.00200
Br652      Br  0.39572225  0.19176761  0.91072925    -0.04200
C653        C  0.48235379  0.69784359  0.89541313    -0.11600
C654        C  0.52197872  0.69524660  0.90666811     0.03900
C655        C  0.51883921  0.72739575  0.91958140    -0.12100
C656        C  0.47658843  0.76196922  0.92159067     0.18700
C657        C  0.43697819  0.76439620  0.91042757    -0.09200
C658        C  0.43995487  0.73227966  0.89755548    -0.02100
H659        H  0.54947694  0.72539270  0.92813431     0.05300
C660        C  0.47635928  0.79782687  0.93482026     0.20700
H661        H  0.40940316  0.73517074  0.88900607     0.10400
C662        C  0.51423643  0.83758953  0.93554424    -0.15500
C663        C  0.51374831  0.87430901  0.94737715     0.03400
C664        C  0.47427877  0.87198780  0.95859171    -0.10800
C665        C  0.43736992  0.83124929  0.95812125    -0.00900
C666        C  0.43862949  0.79379990  0.94648481    -0.06000
H667        H  0.54402930  0.84030258  0.92678144     0.06400
H668        H  0.40766208  0.82849320  0.96690575     0.09800
Br669      Br  0.37949144  0.81291849  0.91180026    -0.05700
Br670      Br  0.57966141  0.64689611  0.90565296    -0.02700
Br671      Br  0.56839344  0.92596906  0.94792698     0.00200
Br672      Br  0.38939921  0.73698017  0.94733275    -0.04200
C673        C  0.98951575  0.44800075  0.74027971    -0.11600
C674        C  0.94771167  0.41011068  0.73963965     0.03900
C675        C  0.95355526  0.36440518  0.73090256    -0.12100
C676        C  0.99849433  0.35485499  0.72231002     0.18700
C677        C  0.03822749  0.39257788  0.72198330    -0.09200
C678        C  0.03316058  0.43844038  0.73056718    -0.02100
H679        H  0.92190187  0.33608389  0.73050045     0.05300
C680        C  0.00107360  0.30675945  0.71292560     0.20700
H681        H  0.06520508  0.46625483  0.73019608     0.10400
C682        C  0.97144027  0.30442100  0.69948244    -0.15500
C683        C  0.97093791  0.25897091  0.69054441     0.03400
C684        C  0.00016769  0.21451936  0.69515907    -0.10800
C685        C  0.03067493  0.21730678  0.70846805    -0.00900
C686        C  0.03095158  0.26284105  0.71742441    -0.06000
H687        H  0.94877117  0.33831663  0.69589809     0.06400
H688        H  0.05353004  0.18356249  0.71206954     0.09800
Br689      Br  0.10035144  0.38305514  0.70999304    -0.05700
Br690      Br  0.87770659  0.41637668  0.74773043    -0.02700
Br691      Br  0.93250731  0.26166195  0.67171182     0.00200
Br692      Br  0.07110644  0.26286067  0.73594221    -0.04200
C693        C  0.01546072  0.78010460  0.69461362    -0.11600
C694        C  0.97488706  0.76739137  0.70487340     0.03900
C695        C  0.97497603  0.71871549  0.71227064    -0.12100
C696        C  0.01452783  0.68170510  0.70946256     0.18700
C697        C  0.05383878  0.69331488  0.69873006    -0.09200
C698        C  0.05454754  0.74254251  0.69158658    -0.02100
H699        H  0.94434898  0.70989395  0.72043307     0.05300
C700        C  0.01403093  0.63196684  0.71819339     0.20700
H701        H  0.08507219  0.75089560  0.68336747     0.10400
C702        C  0.97296013  0.59663869  0.71604154    -0.15500
C703        C  0.96597707  0.55349685  0.72578868     0.03400
C704        C  0.00074051  0.54483985  0.73843084    -0.10800
C705        C  0.04606135  0.57722164  0.73880135    -0.00900
C706        C  0.05124475  0.62157479  0.72955218    -0.06000
H707        H  0.94455195  0.60414345  0.70709253     0.06400
H708        H  0.07822433  0.56991651  0.74643073     0.09800
Br709      Br  0.10577744  0.64243291  0.69300491    -0.05700
Br710      Br  0.91952230  0.81558913  0.70975283    -0.02700
Br711      Br  0.90422972  0.51332823  0.72149447     0.00200
Br712      Br  0.10781048  0.66904630  0.73384379    -0.04200
C713        C  0.04156140  0.49431081  0.76158173    -0.11600
C714        C  0.05658631  0.53528461  0.77186519     0.03900
C715        C  0.10360692  0.53192452  0.78007493    -0.12100
C716        C  0.13541526  0.48731548  0.77928553     0.18700
C717        C  0.11772395  0.44370823  0.77104925    -0.09200
C718        C  0.07116212  0.44694734  0.76270585    -0.02100
H719        H  0.11567664  0.56465452  0.78714146     0.05300
C720        C  0.18584054  0.48661535  0.78764272     0.20700
H721        H  0.05873937  0.41113435  0.75724791     0.10400
C722        C  0.19040823  0.45659361  0.80099451    -0.15500
C723        C  0.23653100  0.45728424  0.80964137     0.03400
C724        C  0.27955586  0.48792211  0.80476985    -0.10800
C725        C  0.27472714  0.51827584  0.79147570    -0.00900
C726        C  0.22839967  0.51780976  0.78291408    -0.06000
H727        H  0.15734704  0.43362031  0.80492000     0.06400
H728        H  0.30724449  0.54230973  0.78770045     0.09800
Br729      Br  0.15631656  0.37891130  0.77050176    -0.05700
Br730      Br  0.01766069  0.59887392  0.77506088    -0.02700
Br731      Br  0.23582889  0.41992593  0.82869764     0.00200
Br732      Br  0.22518165  0.55999408  0.76477149    -0.04200
C733        C  0.71256850  0.50446850  0.80709225    -0.11600
C734        C  0.72515700  0.46302059  0.79705967     0.03900
C735        C  0.77282023  0.46353907  0.78911138    -0.12100
C736        C  0.80904041  0.50436922  0.79118335     0.18700
C737        C  0.79729598  0.54482888  0.80157057    -0.09200
C738        C  0.74922699  0.54498537  0.80926519    -0.02100
H739        H  0.78132691  0.43238085  0.78107154     0.05300
C740        C  0.85712645  0.50585011  0.78167946     0.20700
H741        H  0.74096843  0.57652301  0.81718917     0.10400
C742        C  0.86249989  0.54533506  0.77072182    -0.15500
C743        C  0.90621011  0.54793410  0.76106646     0.03400
C744        C  0.94448277  0.50626801  0.76119615    -0.10800
C745        C  0.93956499  0.46876746  0.77317594    -0.00900
C746        C  0.89725627  0.46869433  0.78330737    -0.06000
H747        H  0.83266439  0.57562154  0.77000175     0.06400
H748        H  0.96817657  0.43759473  0.77437769     0.09800
Br749      Br  0.84672922  0.59942021  0.80605657    -0.05700
Br750      Br  0.67758527  0.40628457  0.79313054    -0.02700
Br751      Br  0.90959258  0.61442771  0.75057054     0.00200
Br752      Br  0.89626659  0.41723029  0.79929947    -0.04200
C753        C  0.79903716  0.99705567  0.69672049    -0.11600
C754        C  0.79510401  0.97425551  0.71133291     0.03900
C755        C  0.74734943  0.97586316  0.71924131    -0.12100
C756        C  0.70325113  0.00076688  0.71288587     0.18700
C757        C  0.70765336  0.02482804  0.69845794    -0.09200
C758        C  0.75518963  0.02279199  0.69051578    -0.02100
H759        H  0.74482587  0.95850098  0.73051314     0.05300
C760        C  0.65365218  0.00312832  0.72169585     0.20700
H761        H  0.75774188  0.04096593  0.67935410     0.10400
C762        C  0.63671141  0.05119715  0.72761172    -0.15500
C763        C  0.59035544  0.05540036  0.73612539     0.03400
C764        C  0.56095466  0.00916105  0.73993047    -0.10800
C765        C  0.57629237  0.96227056  0.73244523    -0.00900
C766        C  0.62232181  0.95860842  0.72387155    -0.06000
H767        H  0.65935782  0.08624390  0.72523010     0.06400
H768        H  0.55437761  0.92672383  0.73411154     0.09800
Br769      Br  0.64947102  0.06001844  0.68901610    -0.05700
Br770      Br  0.85489526  0.94466357  0.72145303    -0.02700
Br771      Br  0.56942314  0.12710393  0.73964396     0.00200
Br772      Br  0.64110989  0.89142782  0.71560620    -0.04200
C773        C  0.46534180  0.00351002  0.73836220    -0.11600
C774        C  0.43734663  0.95687596  0.73410500     0.03900
C775        C  0.39271571  0.96047838  0.72485072    -0.12100
C776        C  0.37662721  0.00813030  0.71845373     0.18700
C777        C  0.40790703  0.05275067  0.72069942    -0.09200
C778        C  0.45227789  0.04973222  0.73011427    -0.02100
H779        H  0.37035031  0.92527970  0.72245162     0.05300
C780        C  0.32654848  0.00994854  0.70978859     0.20700
H781        H  0.47406713  0.08533313  0.73193883     0.10400
C782        C  0.28372853  0.03747925  0.71590187    -0.15500
C783        C  0.23451841  0.03619040  0.70878438     0.03400
C784        C  0.22737932  0.00692569  0.69531202    -0.10800
C785        C  0.27012926  0.97914369  0.68922971    -0.00900
C786        C  0.31943118  0.98069064  0.69629419    -0.06000
H787        H  0.28830805  0.05898905  0.72647729     0.06400
H788        H  0.26539351  0.95677529  0.67881400     0.09800
Br789      Br  0.39066446  0.11920321  0.71161312    -0.05700
Br790      Br  0.45797182  0.88524795  0.73807103    -0.02700
Br791      Br  0.17726739  0.07172511  0.71851404     0.00200
Br792      Br  0.37627170  0.94335976  0.68690294    -0.04200
C793        C  0.50636848  0.05490892  0.76144246    -0.11600
C794        C  0.45994410  0.08507365  0.76452626     0.03900
C795        C  0.46283200  0.13014206  0.77366892    -0.12100
C796        C  0.50898192  0.14416841  0.78119482     0.18700
C797        C  0.55245102  0.11064824  0.78018495    -0.09200
C798        C  0.55092030  0.06717664  0.77044619    -0.02100
H799        H  0.42794527  0.15374472  0.77538959     0.05300
C800        C  0.50939819  0.19218936  0.79076766     0.20700
H801        H  0.58597168  0.04391309  0.76952451     0.10400
C802        C  0.47747170  0.19420796  0.80377561    -0.15500
C803        C  0.47479164  0.23964684  0.81273270     0.03400
C804        C  0.50414060  0.28442707  0.80861445    -0.10800
C805        C  0.53668644  0.28210956  0.79574705    -0.00900
C806        C  0.53918614  0.23673184  0.78676538    -0.06000
H807        H  0.45474128  0.16006268  0.80702063     0.06400
H808        H  0.55951701  0.31617872  0.79248753     0.09800
Br809      Br  0.61418746  0.12153098  0.79228908    -0.05700
Br810      Br  0.38884896  0.06618710  0.75953475    -0.02700
Br811      Br  0.43334592  0.23672519  0.83097732     0.00200
Br812      Br  0.58201557  0.23856296  0.76880587    -0.04200
C813        C  0.51132784  0.95908762  0.76174945    -0.11600
C814        C  0.55619170  0.92919376  0.76656100     0.03900
C815        C  0.54946506  0.88342142  0.77526858    -0.12100
C816        C  0.50000022  0.86708239  0.78019639     0.18700
C817        C  0.45694636  0.90032399  0.77758169    -0.09200
C818        C  0.46319325  0.94599677  0.76885461    -0.02100
H819        H  0.58347519  0.86003728  0.77829131     0.05300
C820        C  0.49474942  0.81520648  0.78791975     0.20700
H821        H  0.42864327  0.96898861  0.76655794     0.10400
C822        C  0.47763114  0.81252711  0.80313284    -0.15500
C823        C  0.47446044  0.76419002  0.81078778     0.03400
C824        C  0.48921563  0.71749742  0.80327886    -0.10800
C825        C  0.50630724  0.72005516  0.78811929    -0.00900
C826        C  0.50877683  0.76821382  0.78038795    -0.06000
H827        H  0.46741539  0.84825158  0.80914532     0.06400
H828        H  0.51759265  0.68437380  0.78224053     0.09800
Br829      Br  0.38759418  0.88294957  0.78431868    -0.05700
Br830      Br  0.62881065  0.94790362  0.76389719    -0.02700
Br831      Br  0.45184678  0.76418898  0.83166900     0.00200
Br832      Br  0.53021689  0.76742479  0.75939521    -0.04200
C833        C  0.29933222  0.49622786  0.10394180    -0.11600
C834        C  0.30605915  0.46545361  0.09069071     0.03900
C835        C  0.27202364  0.47220211  0.07827298    -0.12100
C836        C  0.23089469  0.50875945  0.07889742     0.18700
C837        C  0.22316935  0.53810997  0.09229131    -0.09200
C838        C  0.25777621  0.53236251  0.10455411    -0.02100
H839        H  0.27789159  0.44917379  0.06802787     0.05300
C840        C  0.19572034  0.51506680  0.06560402     0.20700
H841        H  0.25169579  0.55571724  0.11472822     0.10400
C842        C  0.15619596  0.47793840  0.06318051    -0.15500
C843        C  0.12127471  0.48327112  0.05097151     0.03400
C844        C  0.12545813  0.52653578  0.04094436    -0.10800
C845        C  0.16561940  0.56331115  0.04323636    -0.00900
C846        C  0.20079877  0.55770825  0.05543634    -0.06000
H847        H  0.15233203  0.44483560  0.07088545     0.06400
H848        H  0.16933165  0.59655362  0.03558176     0.09800
Br849      Br  0.16482671  0.58508265  0.09451251    -0.05700
Br850      Br  0.36257773  0.41615096  0.08844831    -0.02700
Br851      Br  0.06894232  0.42997033  0.04834722     0.00200
Br852      Br  0.25561910  0.60856214  0.05772919    -0.04200
C853        C  0.85963491  0.52022157  0.04069489    -0.11600
C854        C  0.81704034  0.55504922  0.04224746     0.03900
C855        C  0.78306131  0.54998131  0.05468250    -0.12100
C856        C  0.79196592  0.51158210  0.06590060     0.18700
C857        C  0.83521632  0.47765106  0.06455446    -0.09200
C858        C  0.86811061  0.48150597  0.05187536    -0.02100
H859        H  0.75035009  0.57687353  0.05582498     0.05300
C860        C  0.75632873  0.50813234  0.07909400     0.20700
H861        H  0.90161401  0.45548324  0.05098966     0.10400
C862        C  0.71822637  0.46863922  0.07945384    -0.15500
C863        C  0.68300618  0.46510918  0.09163219     0.03400
C864        C  0.68538673  0.50179825  0.10365700    -0.10800
C865        C  0.72407996  0.54093044  0.10330481    -0.00900
C866        C  0.75960864  0.54405310  0.09121622    -0.06000
H867        H  0.71548602  0.44091217  0.07011656     0.06400
H868        H  0.72694995  0.56910112  0.11251628     0.09800
Br869      Br  0.85291750  0.42834596  0.08032303    -0.05700
Br870      Br  0.80627618  0.61235933  0.02833834    -0.02700
Br871      Br  0.63056949  0.41181938  0.09059457     0.00200
Br872      Br  0.81261481  0.59728316  0.09183756    -0.04200
C873        C  0.12631460  0.52406591  0.96030669    -0.11600
C874        C  0.12505969  0.48152859  0.95000775     0.03900
C875        C  0.15963381  0.48020097  0.93762444    -0.12100
C876        C  0.19608039  0.52065652  0.93526757     0.18700
C877        C  0.19775984  0.56285979  0.94567567    -0.09200
C878        C  0.16318180  0.56417185  0.95809307    -0.02100
H879        H  0.15778663  0.44763350  0.92969745     0.05300
C880        C  0.23129625  0.51830323  0.92177713     0.20700
H881        H  0.16431555  0.59713824  0.96588862     0.10400
C882        C  0.22606526  0.55575528  0.91008846    -0.15500
C883        C  0.25785016  0.55390293  0.89704220     0.03400
C884        C  0.29552913  0.51345017  0.89542307    -0.10800
C885        C  0.30027162  0.47584386  0.90711058    -0.00900
C886        C  0.26892919  0.47814987  0.92019246    -0.06000
H887        H  0.19668848  0.58635072  0.91106503     0.06400
H888        H  0.32920121  0.44482529  0.90623191     0.09800
Br889      Br  0.24690582  0.61929359  0.94350951    -0.05700
Br890      Br  0.07660214  0.42447651  0.95234285    -0.02700
Br891      Br  0.24556392  0.60609380  0.88159799     0.00200
Br892      Br  0.28051370  0.42665044  0.93585831    -0.04200
C893        C  0.85642723  0.51961574  0.96086519    -0.11600
C894        C  0.81742290  0.55865221  0.95958058     0.03900
C895        C  0.78204019  0.55746961  0.94737527    -0.12100
C896        C  0.78505952  0.51787205  0.93632236     0.18700
C897        C  0.82340986  0.47834785  0.93770242    -0.09200
C898        C  0.85866210  0.47933923  0.94994376    -0.02100
H899        H  0.75281840  0.58818713  0.94630028     0.05300
C900        C  0.74978483  0.51990710  0.92298127     0.20700
H901        H  0.88874815  0.44937921  0.95076259     0.10400
C902        C  0.76413265  0.55023463  0.91028747    -0.15500
C903        C  0.73249812  0.55175549  0.89722929     0.03400
C904        C  0.68600344  0.52200403  0.89673939    -0.10800
C905        C  0.67164261  0.49212076  0.90950018    -0.00900
C906        C  0.70273157  0.49135233  0.92264391    -0.06000
H907        H  0.80039144  0.57229392  0.91049183     0.06400
H908        H  0.63557358  0.47011822  0.90929805     0.09800
Br909      Br  0.83006899  0.42363606  0.92278835    -0.05700
Br910      Br  0.81316214  0.61611976  0.97365579    -0.02700
Br911      Br  0.75630289  0.59242557  0.88015125     0.00200
Br912      Br  0.67924387  0.45169227  0.93994799    -0.04200
C913        C  0.78651228  0.00272546  0.30617371    -0.11600
C914        C  0.77671821  0.03964804  0.29446119     0.03900
C915        C  0.72896669  0.03875116  0.28654747    -0.12100
C916        C  0.69045531  0.00139303  0.29003914     0.18700
C917        C  0.70026223  0.96435432  0.30166204    -0.09200
C918        C  0.74798401  0.96510334  0.30955881    -0.02100
H919        H  0.72229189  0.06656116  0.27737119     0.05300
C920        C  0.64223434  0.99888142  0.28061153     0.20700
H921        H  0.75463953  0.93657851  0.31854612     0.10400
C922        C  0.63588110  0.95684317  0.27061192    -0.15500
C923        C  0.59141557  0.95191587  0.26133861     0.03400
C924        C  0.55217298  0.99276288  0.26116138    -0.10800
C925        C  0.55833412  0.03314336  0.27221272    -0.00900
C926        C  0.60259914  0.03683024  0.28158135    -0.06000
H927        H  0.66568916  0.92644241  0.27036060     0.06400
H928        H  0.52891998  0.06367261  0.27318693     0.09800
Br929      Br  0.64906605  0.91281141  0.30736351    -0.05700
Br930      Br  0.82846921  0.08941949  0.28791760    -0.02700
Br931      Br  0.58876664  0.88355845  0.25186156     0.00200
Br932      Br  0.60686910  0.09413733  0.29570085    -0.04200
C933        C  0.45405613  0.99920337  0.26217664    -0.11600
C934        C  0.44290712  0.95932046  0.27326247     0.03900
C935        C  0.39691668  0.96140676  0.28198949    -0.12100
C936        C  0.36179394  0.00327221  0.28060325     0.18700
C937        C  0.37485571  0.04562818  0.27118734    -0.09200
C938        C  0.42100232  0.04432418  0.26268321    -0.02100
H939        H  0.38803787  0.92963237  0.28981259     0.05300
C940        C  0.31165264  0.00232121  0.28903532     0.20700
H941        H  0.42954421  0.07954904  0.25634163     0.10400
C942        C  0.30461695  0.03577683  0.30154701    -0.15500
C943        C  0.25701560  0.03711272  0.30945125     0.03400
C944        C  0.21532963  0.00413585  0.30485484    -0.10800
C945        C  0.22284168  0.97019168  0.29241993    -0.00900
C946        C  0.27035176  0.96937366  0.28445614    -0.06000
H947        H  0.33643944  0.06097126  0.30517766     0.06400
H948        H  0.19136274  0.94460939  0.28876544     0.09800
Br949      Br  0.32933270  0.10530012  0.26889667    -0.05700
Br950      Br  0.48631433  0.89932532  0.27729942    -0.02700
Br951      Br  0.25327204  0.08252333  0.32689958     0.00200
Br952      Br  0.27669168  0.92413945  0.26704871    -0.04200
C953        C  0.49762501  0.28232998  0.19538289    -0.11600
C954        C  0.45974409  0.27337055  0.20680786     0.03900
C955        C  0.46136512  0.22696477  0.21541865    -0.12100
C956        C  0.49986728  0.18871635  0.21270003     0.18700
C957        C  0.53611259  0.19648159  0.20082268    -0.09200
C958        C  0.53530454  0.24331279  0.19244778    -0.02100
H959        H  0.43284988  0.22092400  0.22439882     0.05300
C960        C  0.50126583  0.14071786  0.22224126     0.20700
H961        H  0.56367154  0.24873466  0.18340463     0.10400
C962        C  0.46113484  0.10392987  0.22086956    -0.15500
C963        C  0.46085508  0.05788942  0.22961929     0.03400
C964        C  0.50208966  0.04714771  0.24035566    -0.10800
C965        C  0.54304560  0.08481755  0.24112363    -0.00900
C966        C  0.54209664  0.13122481  0.23259729    -0.06000
H967        H  0.42937171  0.11134225  0.21292916     0.06400
H968        H  0.57743678  0.07877497  0.24801635     0.09800
Br969      Br  0.58589969  0.14323328  0.19524421    -0.05700
Br970      Br  0.40658396  0.32412289  0.21165386    -0.02700
Br971      Br  0.39987684  0.01464610  0.22664266     0.00200
Br972      Br  0.59703063  0.18142710  0.23590187    -0.04200
C973        C  0.49028819  0.71917150  0.19286860    -0.11600
C974        C  0.53183756  0.73196448  0.20281466     0.03900
C975        C  0.53147319  0.77974133  0.21066965    -0.12100
C976        C  0.49061419  0.81592555  0.20864856     0.18700
C977        C  0.45053224  0.80463821  0.19810521    -0.09200
C978        C  0.45015552  0.75625304  0.19050401    -0.02100
H979        H  0.56271271  0.78826681  0.21867325     0.05300
C980        C  0.48980606  0.86377290  0.21824337     0.20700
H981        H  0.41875991  0.74805461  0.18254220     0.10400
C982        C  0.52868359  0.90179061  0.21636959    -0.15500
C983        C  0.53322828  0.94427743  0.22645497     0.03400
C984        C  0.49799717  0.94964508  0.23912212    -0.10800
C985        C  0.45704261  0.91214351  0.24007241    -0.00900
C986        C  0.45363802  0.86941625  0.23015310    -0.06000
H987        H  0.55704013  0.89728533  0.20726813     0.06400
H988        H  0.42638292  0.91515553  0.24841685     0.09800
Br989      Br  0.39653231  0.85469151  0.19343061    -0.05700
Br990      Br  0.58881731  0.68493812  0.20681252    -0.02700
Br991      Br  0.59306977  0.98848813  0.22283314     0.00200
Br992      Br  0.40015207  0.81808565  0.23397490    -0.04200
loop_ 
_geom_bond_atom_site_label_1 
_geom_bond_atom_site_label_2 
_geom_bond_distance 
_geom_bond_site_symmetry_2 
_ccdc_geom_bond_type 
C1          C924   1.577       .  S
C1          C933   1.585       .  S
C1          C964   1.579   1_565  S
C1          C984   1.567       .  S
N2            C7   1.355       .  A
N2            C6   1.354   1_554  A
N2           H34   1.040       .  S
N3           C10   1.351   1_655  A
N3           C11   1.352       .  A
N4            C9   1.352       .  A
N4            C8   1.352   1_554  A
N4           H35   1.039       .  S
N5           C12   1.350   1_655  A
N5           C13   1.350       .  A
C6           C14   1.387       .  A
C6           C22   1.418       .  A
C7           C23   1.418       .  A
C7           C15   1.387       .  A
C8           C16   1.386       .  A
C8           C25   1.413       .  A
C9           C24   1.415       .  A
C9           C17   1.388       .  A
C10          C22   1.413       .  A
C10          C18   1.386       .  A
C11          C25   1.413       .  A
C11          C19   1.386       .  A
C12          C20   1.386       .  A
C12          C23   1.411       .  A
C13          C21   1.387       .  A
C13          C24   1.412       .  A
C14          C15   1.380   1_556  A
C14          H26   1.082       .  S
C15          H27   1.082       .  S
C16          C17   1.380   1_556  A
C16          H28   1.082       .  S
C17          H29   1.082       .  S
C18          C19   1.372   1_455  A
C18          H30   1.082       .  S
C19          H31   1.082       .  S
C20          C21   1.372   1_455  A
C20          H32   1.082       .  S
C21          H33   1.083       .  S
C22         C873   1.491       .  S
C23         C844   1.491       .  S
C24         C853   1.486       .  S
C25         C893   1.488       .  S
C36         C764   1.569       .  S
C36         C773   1.571       .  S
C36         C793   1.570       .  S
C36         C813   1.571   1_545  S
C37         C673   1.577       .  S
C37         C704   1.576   1_655  S
C37         C713   1.588   1_655  S
C37         C744   1.569       .  S
N38          C43   1.353   1_556  A
N38          C42   1.352       .  A
N38          H70   1.039       .  S
N39          C46   1.350   1_545  A
N39          C47   1.350       .  A
N40          C45   1.351       .  A
N40          C44   1.353   1_554  A
N40          H71   1.040       .  S
N41          C48   1.351       .  A
N41          C49   1.351   1_565  A
C42          C50   1.387       .  A
C42          C58   1.414       .  A
C43          C59   1.414       .  A
C43          C51   1.386       .  A
C44          C52   1.386       .  A
C44          C61   1.413       .  A
C45          C60   1.412       .  A
C45          C53   1.387       .  A
C46          C58   1.412       .  A
C46          C54   1.386       .  A
C47          C61   1.411       .  A
C47          C55   1.386       .  A
C48          C56   1.387       .  A
C48          C59   1.414       .  A
C49          C57   1.386       .  A
C49          C60   1.412       .  A
C50          C51   1.376   1_556  A
C50          H62   1.082       .  S
C51          H63   1.082       .  S
C52          C53   1.376   1_556  A
C52          H64   1.082       .  S
C53          H65   1.082       .  S
C54          C55   1.373   1_565  A
C54          H66   1.082       .  S
C55          H67   1.083       .  S
C56          C57   1.373   1_565  A
C56          H68   1.082       .  S
C57          H69   1.082       .  S
C58         C664   1.485       .  S
C59         C613   1.488       .  S
C60         C604   1.483       .  S
C61         C633   1.487       .  S
C72          N90   1.350       .  A
C72         C109   1.458       .  S
C72         C904   1.473       .  S
N73          N90   1.325       .  A
N73          N95   1.320       .  A
N73        Co110   2.083       .  S
C74          N99   1.342       .  A
C74         H119   1.082       .  S
C74         C112   1.462       .  S
H75         C116   1.081       .  S
C76         N100   1.342       .  A
C76         H105   1.081       .  S
C76          C80   1.463       .  S
Co77         N95   2.084       .  S
Co77         N85   2.087       .  S
Co77        N117   2.085       .  S
Co77         N93   2.093       .  S
Co77       Cl121   2.454       .  S
N78         C116   1.339       .  A
N78          N85   1.320       .  A
N78         Co79   2.082       .  S
Co79         N82   2.089       .  S
Co79         N99   2.088       .  S
Co79         N86   2.091       .  S
Co79       Cl121   2.457       .  S
C80         N118   1.351       .  A
C80         C884   1.488       .  S
N81          N88   1.320       .  A
N81         N111   1.323       .  A
N81        Co114   2.073       .  S
N82         N100   1.319       .  A
N82         N118   1.327       .  A
N83         C112   1.351       .  A
N83          N93   1.326       .  A
H84         C109   1.081       .  S
N85         N106   1.325       .  A
N86         N104   1.320       .  A
N86          N91   1.326       .  A
C87          N91   1.352       .  A
C87         C115   1.459       .  S
C87         C724   1.477       .  S
N88         C103   1.344       .  A
N88        Co110   2.101       .  S
C89         N117   1.340       .  A
C89         H123   1.082       .  S
C89          C92   1.462       .  S
C92         N113   1.353       .  A
C92         C733   1.484       .  S
N93          N99   1.320       .  A
N94         C120   1.341       .  A
N94          N96   1.321       .  A
N94        Co110   2.086       .  S
N95         C109   1.340       .  A
N96         N124   1.325       .  A
N96        Co114   2.089       .  S
H97         C120   1.082       .  S
H98         C115   1.082       .  S
N100       Co114   2.091       .  S
N101        N113   1.326       .  A
N101        N117   1.321       .  A
N101       Co110   2.101       .  S
C102        N106   1.351       .  A
C102        C116   1.458       .  S
C102        C653   1.478       .  S
C103        H107   1.081       .  S
C103        C122   1.466       .  S
N104        C115   1.338       .  A
N104       Co114   2.079       .  S
C108        N124   1.351       .  A
C108        C120   1.459       .  S
C108        C804   1.478       .  S
Co110      Cl121   2.452       .  S
N111        C122   1.347       .  A
C112        C824   1.477       .  S
Co114      Cl121   2.451       .  S
C122        C644   1.480       .  S
C125        N143   1.354       .  A
C125        C162   1.460       .  S
C125        C573   1.478       .  S
N126        N143   1.326       .  A
N126        N148   1.321       .  A
N126       Co163   2.101       .  S
C127        N152   1.340       .  A
C127        H172   1.081       .  S
C127        C165   1.462       .  S
H128        C169   1.082       .  S
C129        N153   1.340       .  A
C129        H158   1.081       .  S
C129        C133   1.467       .  S
Co130       N148   2.087       .  S
Co130       N138   2.086       .  S
Co130       N170   2.081       .  S
Co130       N146   2.091       .  S
Co130      Cl174   2.447       .  S
N131        C169   1.341       .  A
N131        N138   1.320       .  A
N131       Co132   2.083       .  S
Co132       N135   2.097       .  S
Co132       N152   2.089       .  S
Co132       N139   2.079       .  S
Co132      Cl174   2.457       .  S
C133        N171   1.354       .  A
C133        C553   1.496       .  S
N134        N141   1.320       .  A
N134        N164   1.325       .  A
N134       Co167   2.084       .  S
N135        N153   1.319       .  A
N135        N171   1.326       .  A
N136        C165   1.352       .  A
N136        N146   1.326       .  A
H137        C162   1.082       .  S
N138        N159   1.324       .  A
N139        N157   1.318       .  A
N139        N144   1.323       .  A
C140        N144   1.349       .  A
C140        C168   1.461       .  S
C140        C833   1.476       .  S
N141        C156   1.341       .  A
N141       Co163   2.091       .  S
C142        N170   1.338       .  A
C142        H176   1.081       .  S
C142        C145   1.457       .  S
C145        N166   1.352       .  A
C145        C864   1.478       .  S
N146        N152   1.320       .  A
N147        C173   1.344       .  A
N147        N149   1.320       .  A
N147       Co163   2.093       .  S
N148        C162   1.341       .  A
N149        N177   1.321       .  A
N149       Co167   2.072       .  S
H150        C173   1.081       .  S
H151        C168   1.081       .  S
N153       Co167   2.083       .  S
N154        N166   1.327       .  A
N154        N170   1.319       .  A
N154       Co163   2.084       .  S
C155        N159   1.351       .  A
C155        C169   1.463       .  S
C155        C973   1.482       .  S
C156        H160   1.082       .  S
C156        C175   1.463       .  S
N157        C168   1.342       .  A
N157       Co167   2.084       .  S
C161        N177   1.344       .  A
C161        C173   1.463       .  S
C161        C593   1.473       .  S
Co163      Cl174   2.459       .  S
N164        C175   1.350       .  A
C165        C624   1.486       .  S
Co167      Cl174   2.447       .  S
C175        C953   1.480       .  S
C178        N196   1.350   1_455  A
C178        C215   1.463       .  S
C178        C693   1.478       .  S
N179        N196   1.323       .  A
N179        N201   1.320   1_655  A
N179       Co216   2.082       .  S
C180        N205   1.341       .  A
C180        H225   1.081       .  S
C180        C218   1.459       .  S
H181        C222   1.082       .  S
C182        N206   1.340       .  A
C182        H211   1.082       .  S
C182        C186   1.461   1_655  S
Co183       N201   2.084       .  S
Co183       N191   2.088       .  S
Co183       N223   2.080       .  S
Co183       N199   2.077       .  S
Co183      Cl227   2.453       .  S
N184        C222   1.343       .  A
N184        N191   1.321   1_545  A
N184       Co185   2.099       .  S
Co185       N188   2.082       .  S
Co185       N205   2.080       .  S
Co185       N192   2.091       .  S
Co185      Cl227   2.454   1_545  S
C186        N224   1.350       .  A
C186        C684   1.476       .  S
N187        N194   1.320   1_545  A
N187        N217   1.324       .  A
N187       Co220   2.083       .  S
N188        N206   1.321   1_455  A
N188        N224   1.325       .  A
N189        C218   1.348   1_565  A
N189        N199   1.323       .  A
H190        C215   1.082       .  S
N191        N212   1.326       .  A
N192        N210   1.321   1_455  A
N192        N197   1.326       .  A
C193        N197   1.350       .  A
C193        C221   1.453   1_455  S
C193        C524   1.466       .  S
N194        C209   1.346       .  A
N194       Co216   2.105       .  S
C195        N223   1.339       .  A
C195        H229   1.081       .  S
C195        C198   1.455       .  S
C198        N219   1.352   1_455  A
C198        C544   1.476       .  S
N199        N205   1.319   1_565  A
N200        C226   1.341       .  A
N200        N202   1.318   1_565  A
N200       Co216   2.083       .  S
N201        C215   1.340       .  A
N202        N230   1.328       .  A
N202       Co220   2.094       .  S
H203        C226   1.081       .  S
H204        C221   1.081       .  S
N206       Co220   2.091       .  S
N207        N219   1.327       .  A
N207        N223   1.321   1_655  A
N207       Co216   2.096       .  S
C208        N212   1.352   1_545  A
C208        C222   1.464       .  S
C208        C784   1.482       .  S
C209        H213   1.082       .  S
C209        C228   1.468       .  S
N210        C221   1.338       .  A
N210       Co220   2.075       .  S
C214        N230   1.354   1_565  A
C214        C226   1.461       .  S
C214        C493   1.487       .  S
Co216      Cl227   2.453   1_655  S
N217        C228   1.350   1_545  A
C218        C484   1.473       .  S
Co220      Cl227   2.450   1_645  S
C228        C753   1.480       .  S
C231        N249   1.351       .  A
C231        C268   1.460   1_545  S
C231        C944   1.480       .  S
N232        N249   1.324       .  A
N232        N254   1.321   1_545  A
N232       Co269   2.093       .  S
C233        N258   1.342       .  A
C233        H278   1.081       .  S
C233        C271   1.460   1_655  S
H234        C275   1.082       .  S
C235        N259   1.341       .  A
C235        H264   1.081       .  S
C235        C239   1.463       .  S
Co236       N254   2.082       .  S
Co236       N244   2.096       .  S
Co236       N276   2.089       .  S
Co236       N252   2.086       .  S
Co236      Cl280   2.453       .  S
N237        C275   1.342       .  A
N237        N244   1.319   1_655  A
N237       Co238   2.086       .  S
Co238       N241   2.094       .  S
Co238       N258   2.091       .  S
Co238       N245   2.080       .  S
Co238      Cl280   2.454   1_655  S
C239        N277   1.353   1_545  A
C239        C913   1.483       .  S
N240        N247   1.318   1_655  A
N240        N270   1.326       .  A
N240       Co273   2.094       .  S
N241        N259   1.321   1_565  A
N241        N277   1.325       .  A
N242        C271   1.350       .  A
N242        N252   1.325       .  A
H243        C268   1.082       .  S
N244        N265   1.326       .  A
N245        N263   1.320   1_565  A
N245        N250   1.325       .  A
C246        N250   1.347       .  A
C246        C274   1.454   1_565  S
C246        C453   1.463       .  S
N247        C262   1.338       .  A
N247       Co269   2.080       .  S
C248        N276   1.341       .  A
C248        H282   1.081       .  S
C248        C251   1.458       .  S
C251        N272   1.348   1_565  A
C251        C444   1.472       .  S
N252        N258   1.320   1_455  A
N253        C279   1.341       .  A
N253        N255   1.320   1_455  A
N253       Co269   2.087       .  S
N254        C268   1.340       .  A
N255        N283   1.327       .  A
N255       Co273   2.095       .  S
H256        C279   1.081       .  S
H257        C274   1.081       .  S
N259       Co273   2.090       .  S
N260        N272   1.325       .  A
N260        N276   1.320   1_545  A
N260       Co269   2.079       .  S
C261        N265   1.352   1_655  A
C261        C275   1.465       .  S
C261        C364   1.492       .  S
C262        H266   1.081       .  S
C262        C281   1.465   1_455  S
N263        C274   1.339       .  A
N263       Co273   2.079       .  S
C267        N283   1.352   1_455  A
C267        C279   1.458       .  S
C267        C393   1.480       .  S
Co269      Cl280   2.450   1_545  S
N270        C281   1.354       .  A
C271        C413   1.478       .  S
Co273      Cl280   2.455   1_645  S
C281        C373   1.494       .  S
N284        C289   1.355       .  A
N284        C288   1.353       .  A
N284        H316   1.033   1_455  S
N285        C292   1.351   1_455  A
N285        C293   1.352       .  A
N286        C291   1.352       .  A
N286        C290   1.355       .  A
N286        H317   1.035   1_455  S
N287        C294   1.354       .  A
N287        C295   1.352       .  A
C288        C296   1.388       .  A
C288        C304   1.419       .  A
C289        C305   1.418       .  A
C289        C297   1.386       .  A
C290        C298   1.387       .  A
C290        C307   1.416       .  A
C291        C306   1.416       .  A
C291        C299   1.387       .  A
C292        C304   1.416   1_655  A
C292        C300   1.387       .  A
C293        C307   1.415       .  A
C293        C301   1.387   1_455  A
C294        C302   1.387       .  A
C294        C305   1.417       .  A
C295        C303   1.386       .  A
C295        C306   1.415       .  A
C296        C297   1.374       .  A
C296        H308   1.082       .  S
C297        H309   1.082       .  S
C298        C299   1.377       .  A
C298        H310   1.082       .  S
C299        H311   1.082       .  S
C300        C301   1.371       .  A
C300        H312   1.082       .  S
C301        H313   1.083       .  S
C302        C303   1.368       .  A
C302        H314   1.082       .  S
C303        H315   1.082       .  S
C304        C513   1.484       .  S
C305        C404   1.492       .  S
C306        C424   1.485       .  S
C307        C533   1.488       .  S
N318        C323   1.355       .  A
N318        C322   1.353   1_565  A
N318        H350   1.034       .  S
N319        C326   1.352       .  A
N319        C327   1.354       .  A
N320        C325   1.354       .  A
N320        C324   1.356       .  A
N320        H351   1.034       .  S
N321        C328   1.352       .  A
N321        C329   1.351       .  A
C322        C330   1.387       .  A
C322        C338   1.416   1_545  A
C323        C339   1.415       .  A
C323        C331   1.386   1_565  A
C324        C332   1.387   1_565  A
C324        C341   1.419       .  A
C325        C340   1.417       .  A
C325        C333   1.387   1_565  A
C326        C338   1.415       .  A
C326        C334   1.387       .  A
C327        C341   1.416       .  A
C327        C335   1.386       .  A
C328        C336   1.386       .  A
C328        C339   1.413       .  A
C329        C337   1.388       .  A
C329        C340   1.414       .  A
C330        C331   1.377       .  A
C330        H342   1.082       .  S
C331        H343   1.082       .  S
C332        C333   1.379       .  A
C332        H344   1.082       .  S
C333        H345   1.082       .  S
C334        C335   1.372       .  A
C334        H346   1.082       .  S
C335        H347   1.082       .  S
C336        C337   1.369       .  A
C336        H348   1.082       .  S
C337        H349   1.082       .  S
C338        C473   1.486       .  S
C339        C433   1.488       .  S
C340        C464   1.483       .  S
C341        C504   1.497       .  S
C352        C353   1.582       .  S
C352        C384   1.563       .  S
C352        C564   1.579   1_655  S
C352        C584   1.571       .  S
C353        C354   1.432       .  A
C353        C358   1.424   1_655  A
C354        C355   1.404       .  A
C354       Br370   1.912       .  S
C355        C356   1.399       .  A
C355        H359   1.084       .  S
C356        C357   1.403   1_655  A
C356        C360   1.490       .  S
C357        C358   1.398       .  A
C357       Br369   1.920       .  S
C358        H361   1.078       .  S
C360        C362   1.403   1_655  A
C360        C366   1.409       .  A
C362        C363   1.402       .  A
C362        H367   1.084       .  S
C363        C364   1.417   1_455  A
C363       Br371   1.921       .  S
C364        C365   1.408       .  A
C365        C366   1.402       .  A
C365        H368   1.083       .  S
C366       Br372   1.920       .  S
C373        C374   1.420       .  A
C373        C378   1.410   1_655  A
C374        C375   1.403       .  A
C374       Br390   1.921       .  S
C375        C376   1.400       .  A
C375        H379   1.084       .  S
C376        C377   1.402   1_655  A
C376        C380   1.476       .  S
C377        C378   1.397       .  A
C377       Br389   1.919       .  S
C378        H381   1.080       .  S
C380        C382   1.395   1_655  A
C380        C386   1.399       .  A
C382        C383   1.402       .  A
C382        H387   1.084       .  S
C383        C384   1.434   1_455  A
C383       Br391   1.925       .  S
C384        C385   1.422       .  A
C385        C386   1.397       .  A
C385        H388   1.080       .  S
C386       Br392   1.919       .  S
C393        C394   1.410   1_455  A
C393        C398   1.404       .  A
C394        C395   1.402       .  A
C394       Br410   1.919       .  S
C395        C396   1.405   1_655  A
C395        H399   1.083       .  S
C396        C397   1.411       .  A
C396        C400   1.487       .  S
C397        C398   1.400       .  A
C397       Br409   1.920       .  S
C398        H401   1.083       .  S
C400        C402   1.406       .  A
C400        C406   1.411   1_455  A
C402        C403   1.401       .  A
C402        H407   1.083       .  S
C403        C404   1.409       .  A
C403       Br411   1.919       .  S
C404        C405   1.403   1_455  A
C405        C406   1.400       .  A
C405        H408   1.084       .  S
C406       Br412   1.919       .  S
C413        C414   1.411       .  A
C413        C418   1.404   1_455  A
C414        C415   1.399       .  A
C414       Br430   1.919       .  S
C415        C416   1.402       .  A
C415        H419   1.084       .  S
C416        C417   1.409   1_455  A
C416        C420   1.480       .  S
C417        C418   1.401       .  A
C417       Br429   1.920       .  S
C418        H421   1.083       .  S
C420        C422   1.403   1_455  A
C420        C426   1.409       .  A
C422        C423   1.398       .  A
C422        H427   1.083       .  S
C423        C424   1.408   1_655  A
C423       Br431   1.919       .  S
C424        C425   1.403       .  A
C425        C426   1.400       .  A
C425        H428   1.083       .  S
C426       Br432   1.918       .  S
C433        C434   1.410   1_565  A
C433        C438   1.403       .  A
C434        C435   1.399       .  A
C434       Br450   1.918       .  S
C435        C436   1.402   1_545  A
C435        H439   1.083       .  S
C436        C437   1.408       .  A
C436        C440   1.478       .  S
C437        C438   1.401       .  A
C437       Br449   1.918       .  S
C438        H441   1.083       .  S
C440        C442   1.403       .  A
C440        C446   1.407   1_565  A
C442        C443   1.400       .  A
C442        H447   1.083       .  S
C443        C444   1.408       .  A
C443       Br451   1.919       .  S
C444        C445   1.402   1_565  A
C445        C446   1.400       .  A
C445        H448   1.084       .  S
C446       Br452   1.917       .  S
C453        C454   1.406   1_565  A
C453        C458   1.399       .  A
C454        C455   1.398   1_545  A
C454       Br470   1.920       .  S
C455        C456   1.405       .  A
C455        H459   1.083   1_565  S
C456        C457   1.410       .  A
C456        C460   1.479       .  S
C457        C458   1.398       .  A
C457       Br469   1.919       .  S
C458        H461   1.084       .  S
C460        C462   1.403       .  A
C460        C466   1.411   1_565  A
C462        C463   1.398       .  A
C462        H467   1.083       .  S
C463        C464   1.407       .  A
C463       Br471   1.918       .  S
C464        C465   1.402   1_565  A
C465        C466   1.399       .  A
C465        H468   1.083       .  S
C466       Br472   1.920       .  S
C473        C474   1.408       .  A
C473        C478   1.403   1_565  A
C474        C475   1.399       .  A
C474       Br490   1.918       .  S
C475        C476   1.403   1_565  A
C475        H479   1.083       .  S
C476        C477   1.409       .  A
C476        C480   1.476       .  S
C477        C478   1.397       .  A
C477       Br489   1.920       .  S
C478        H481   1.083       .  S
C480        C482   1.402   1_545  A
C480        C486   1.407       .  A
C482        C483   1.398       .  A
C482        H487   1.084       .  S
C483        C484   1.411   1_565  A
C483       Br491   1.921       .  S
C484        C485   1.404       .  A
C485        C486   1.398       .  A
C485        H488   1.083       .  S
C486       Br492   1.919       .  S
C493        C494   1.415       .  A
C493        C498   1.405   1_565  A
C494        C495   1.402       .  A
C494       Br510   1.920       .  S
C495        C496   1.402       .  A
C495        H499   1.084       .  S
C496        C497   1.409   1_565  A
C496        C500   1.488       .  S
C497        C498   1.403       .  A
C497       Br509   1.918       .  S
C498        H501   1.083       .  S
C500        C502   1.404   1_565  A
C500        C506   1.410       .  A
C502        C503   1.402       .  A
C502        H507   1.083       .  S
C503        C504   1.412   1_545  A
C503       Br511   1.919       .  S
C504        C505   1.405       .  A
C505        C506   1.403       .  A
C505        H508   1.083       .  S
C506       Br512   1.918       .  S
C513        C514   1.408   1_455  A
C513        C518   1.402       .  A
C514        C515   1.400       .  A
C514       Br530   1.918       .  S
C515        C516   1.403   1_655  A
C515        H519   1.083       .  S
C516        C517   1.407       .  A
C516        C520   1.474       .  S
C517        C518   1.396       .  A
C517       Br529   1.919       .  S
C518        H521   1.083       .  S
C520        C522   1.402   1_455  A
C520        C526   1.408       .  A
C522        C523   1.398       .  A
C522        H527   1.083       .  S
C523        C524   1.407   1_655  A
C523       Br531   1.919       .  S
C524        C525   1.401       .  A
C525        C526   1.398       .  A
C525        H528   1.084       .  S
C526       Br532   1.919       .  S
C533        C534   1.409       .  A
C533        C538   1.403   1_455  A
C534        C535   1.400       .  A
C534       Br550   1.918       .  S
C535        C536   1.402       .  A
C535        H539   1.083       .  S
C536        C537   1.409   1_455  A
C536        C540   1.479       .  S
C537        C538   1.401       .  A
C537       Br549   1.919       .  S
C538        H541   1.083       .  S
C540        C542   1.402       .  A
C540        C546   1.409   1_455  A
C542        C543   1.401       .  A
C542        H547   1.083       .  S
C543        C544   1.413       .  A
C543       Br551   1.921       .  S
C544        C545   1.402   1_455  A
C545        C546   1.399       .  A
C545        H548   1.084       .  S
C546       Br552   1.919       .  S
C553        C554   1.419       .  A
C553        C558   1.411       .  A
C554        C555   1.403       .  A
C554       Br570   1.921       .  S
C555        C556   1.401       .  A
C555        H559   1.084       .  S
C556        C557   1.404       .  A
C556        C560   1.483       .  S
C557        C558   1.400       .  A
C557       Br569   1.919       .  S
C558        H561   1.081       .  S
C560        C562   1.398       .  A
C560        C566   1.399       .  A
C562        C563   1.405       .  A
C562        H567   1.084       .  S
C563        C564   1.435       .  A
C563       Br571   1.926   1_455  S
C564        C565   1.421       .  A
C565        C566   1.396       .  A
C565        H568   1.081       .  S
C566       Br572   1.918       .  S
C573        C574   1.410       .  A
C573        C578   1.404       .  A
C574        C575   1.400       .  A
C574       Br590   1.914       .  S
C575        C576   1.401       .  A
C575        H579   1.084       .  S
C576        C577   1.407       .  A
C576        C580   1.478       .  S
C577        C578   1.400       .  A
C577       Br589   1.917       .  S
C578        H581   1.083       .  S
C580        C582   1.390       .  A
C580        C586   1.399       .  A
C582        C583   1.398       .  A
C582        H587   1.085       .  S
C583        C584   1.445       .  A
C583       Br591   1.932       .  S
C584        C585   1.423       .  A
C585        C586   1.401       .  A
C585        H588   1.083       .  S
C586       Br592   1.917       .  S
C593        C594   1.411       .  A
C593        C598   1.401       .  A
C594        C595   1.397       .  A
C594       Br610   1.920       .  S
C595        C596   1.400       .  A
C595        H599   1.084       .  S
C596        C597   1.407       .  A
C596        C600   1.474       .  S
C597        C598   1.398       .  A
C597       Br609   1.919       .  S
C598        H601   1.077       .  S
C600        C602   1.403       .  A
C600        C606   1.408       .  A
C602        C603   1.400       .  A
C602        H607   1.083       .  S
C603        C604   1.408       .  A
C603       Br611   1.919       .  S
C604        C605   1.402       .  A
C605        C606   1.396       .  A
C605        H608   1.083       .  S
C606       Br612   1.919       .  S
C613        C614   1.408       .  A
C613        C618   1.403       .  A
C614        C615   1.400       .  A
C614       Br630   1.918       .  S
C615        C616   1.405       .  A
C615        H619   1.083       .  S
C616        C617   1.411       .  A
C616        C620   1.485       .  S
C617        C618   1.398       .  A
C617       Br629   1.920       .  S
C618        H621   1.084       .  S
C620        C622   1.402       .  A
C620        C626   1.410       .  A
C622        C623   1.400       .  A
C622        H627   1.084       .  S
C623        C624   1.415       .  A
C623       Br631   1.918       .  S
C624        C625   1.406       .  A
C625        C626   1.399       .  A
C625        H628   1.083       .  S
C626       Br632   1.921       .  S
C633        C634   1.410       .  A
C633        C638   1.404       .  A
C634        C635   1.401       .  A
C634       Br650   1.919       .  S
C635        C636   1.403       .  A
C635        H639   1.083       .  S
C636        C637   1.406       .  A
C636        C640   1.475       .  S
C637        C638   1.396       .  A
C637       Br649   1.918       .  S
C638        H641   1.084       .  S
C640        C642   1.399       .  A
C640        C646   1.406       .  A
C642        C643   1.399       .  A
C642        H647   1.084       .  S
C643        C644   1.410       .  A
C643       Br651   1.910       .  S
C644        C645   1.406       .  A
C645        C646   1.400       .  A
C645        H648   1.083       .  S
C646       Br652   1.919       .  S
C653        C654   1.413       .  A
C653        C658   1.404       .  A
C654        C655   1.400       .  A
C654       Br670   1.919       .  S
C655        C656   1.402       .  A
C655        H659   1.084       .  S
C656        C657   1.407       .  A
C656        C660   1.477       .  S
C657        C658   1.396       .  A
C657       Br669   1.920       .  S
C658        H661   1.083       .  S
C660        C662   1.402       .  A
C660        C666   1.409       .  A
C662        C663   1.397       .  A
C662        H667   1.084       .  S
C663        C664   1.410       .  A
C663       Br671   1.919       .  S
C664        C665   1.403       .  A
C665        C666   1.397       .  A
C665        H668   1.083       .  S
C666       Br672   1.919       .  S
C673        C674   1.441       .  A
C673        C678   1.424   1_655  A
C674        C675   1.402       .  A
C674       Br690   1.930       .  S
C675        C676   1.394       .  A
C675        H679   1.084       .  S
C676        C677   1.398   1_655  A
C676        C680   1.477   1_655  S
C677        C678   1.396       .  A
C677       Br689   1.918       .  S
C678        H681   1.083       .  S
C680        C682   1.401   1_455  A
C680        C686   1.407       .  A
C682        C683   1.398       .  A
C682        H687   1.084       .  S
C683        C684   1.412   1_655  A
C683       Br691   1.920       .  S
C684        C685   1.404       .  A
C685        C686   1.401       .  A
C685        H688   1.084       .  S
C686       Br692   1.918       .  S
C693        C694   1.410   1_455  A
C693        C698   1.406       .  A
C694        C695   1.397       .  A
C694       Br710   1.919       .  S
C695        C696   1.402   1_655  A
C695        H699   1.084       .  S
C696        C697   1.408       .  A
C696        C700   1.478       .  S
C697        C698   1.400       .  A
C697       Br709   1.919       .  S
C698        H701   1.083       .  S
C700        C702   1.395   1_455  A
C700        C706   1.400       .  A
C702        C703   1.402       .  A
C702        H707   1.084       .  S
C703        C704   1.435   1_655  A
C703       Br711   1.917       .  S
C704        C705   1.422       .  A
C705        C706   1.395       .  A
C705        H708   1.074       .  S
C706       Br712   1.922       .  S
C713        C714   1.432       .  A
C713        C718   1.425       .  A
C714        C715   1.401       .  A
C714       Br730   1.919       .  S
C715        C716   1.396       .  A
C715        H719   1.084       .  S
C716        C717   1.400       .  A
C716        C720   1.480       .  S
C717        C718   1.397       .  A
C717       Br729   1.920       .  S
C718        H721   1.078       .  S
C720        C722   1.401       .  A
C720        C726   1.409       .  A
C722        C723   1.399       .  A
C722        H727   1.084       .  S
C723        C724   1.414       .  A
C723       Br731   1.920       .  S
C724        C725   1.402       .  A
C725        C726   1.400       .  A
C725        H728   1.084       .  S
C726       Br732   1.919       .  S
C733        C734   1.411       .  A
C733        C738   1.407       .  A
C734        C735   1.403       .  A
C734       Br750   1.920       .  S
C735        C736   1.404       .  A
C735        H739   1.084       .  S
C736        C737   1.408       .  A
C736        C740   1.485       .  S
C737        C738   1.401       .  A
C737       Br749   1.919       .  S
C738        H741   1.083       .  S
C740        C742   1.396       .  A
C740        C746   1.400       .  A
C742        C743   1.403       .  A
C742        H747   1.084       .  S
C743        C744   1.440       .  A
C743       Br751   1.927       .  S
C744        C745   1.423       .  A
C745        C746   1.399       .  A
C745        H748   1.082       .  S
C746       Br752   1.917       .  S
C753        C754   1.409       .  A
C753        C758   1.404   1_565  A
C754        C755   1.403       .  A
C754       Br770   1.917       .  S
C755        C756   1.405   1_565  A
C755        H759   1.084       .  S
C756        C757   1.409       .  A
C756        C760   1.485       .  S
C757        C758   1.400       .  A
C757       Br769   1.919       .  S
C758        H761   1.083       .  S
C760        C762   1.398       .  A
C760        C766   1.401   1_545  A
C762        C763   1.404       .  A
C762        H767   1.084       .  S
C763        C764   1.436       .  A
C763       Br771   1.926       .  S
C764        C765   1.418   1_545  A
C765        C766   1.398       .  A
C765        H768   1.074       .  S
C766       Br772   1.918       .  S
C773        C774   1.436   1_545  A
C773        C778   1.419       .  A
C774        C775   1.400       .  A
C774       Br790   1.927       .  S
C775        C776   1.396   1_565  A
C775        H779   1.084       .  S
C776        C777   1.403       .  A
C776        C780   1.487       .  S
C777        C778   1.402       .  A
C777       Br789   1.918       .  S
C778        H781   1.076       .  S
C780        C782   1.404       .  A
C780        C786   1.410   1_545  A
C782        C783   1.402       .  A
C782        H787   1.084       .  S
C783        C784   1.409       .  A
C783       Br791   1.919       .  S
C784        C785   1.405   1_545  A
C785        C786   1.402       .  A
C785        H788   1.083       .  S
C786       Br792   1.920       .  S
C793        C794   1.437       .  A
C793        C798   1.419       .  A
C794        C795   1.402       .  A
C794       Br810   1.928       .  S
C795        C796   1.397       .  A
C795        H799   1.084       .  S
C796        C797   1.401       .  A
C796        C800   1.484       .  S
C797        C798   1.399       .  A
C797       Br809   1.919       .  S
C798        H801   1.075       .  S
C800        C802   1.403       .  A
C800        C806   1.410       .  A
C802        C803   1.400       .  A
C802        H807   1.084       .  S
C803        C804   1.412       .  A
C803       Br811   1.920       .  S
C804        C805   1.403       .  A
C805        C806   1.400       .  A
C805        H808   1.084       .  S
C806       Br812   1.918       .  S
C813        C814   1.436       .  A
C813        C818   1.418       .  A
C814        C815   1.402       .  A
C814       Br830   1.929       .  S
C815        C816   1.399       .  A
C815        H819   1.084       .  S
C816        C817   1.404       .  A
C816        C820   1.489       .  S
C817        C818   1.400       .  A
C817       Br829   1.919       .  S
C818        H821   1.076       .  S
C820        C822   1.405       .  A
C820        C826   1.413       .  A
C822        C823   1.403       .  A
C822        H827   1.083       .  S
C823        C824   1.410       .  A
C823       Br831   1.920       .  S
C824        C825   1.400       .  A
C825        C826   1.401       .  A
C825        H828   1.084       .  S
C826       Br832   1.920       .  S
C833        C834   1.412       .  A
C833        C838   1.404       .  A
C834        C835   1.402       .  A
C834       Br850   1.921       .  S
C835        C836   1.403       .  A
C835        H839   1.083       .  S
C836        C837   1.406       .  A
C836        C840   1.478       .  S
C837        C838   1.398       .  A
C837       Br849   1.918       .  S
C838        H841   1.084       .  S
C840        C842   1.400       .  A
C840        C846   1.409       .  A
C842        C843   1.398       .  A
C842        H847   1.084       .  S
C843        C844   1.412       .  A
C843       Br851   1.919       .  S
C844        C845   1.404       .  A
C845        C846   1.402       .  A
C845        H848   1.083       .  S
C846       Br852   1.918       .  S
C853        C854   1.408       .  A
C853        C858   1.405       .  A
C854        C855   1.400       .  A
C854       Br870   1.918       .  S
C855        C856   1.403       .  A
C855        H859   1.083       .  S
C856        C857   1.406       .  A
C856        C860   1.475       .  S
C857        C858   1.397       .  A
C857       Br869   1.918       .  S
C858        H861   1.084       .  S
C860        C862   1.400       .  A
C860        C866   1.405       .  A
C862        C863   1.399       .  A
C862        H867   1.084       .  S
C863        C864   1.411       .  A
C863       Br871   1.909       .  S
C864        C865   1.404       .  A
C865        C866   1.398       .  A
C865        H868   1.083       .  S
C866       Br872   1.917       .  S
C873        C874   1.411       .  A
C873        C878   1.403       .  A
C874        C875   1.400       .  A
C874       Br890   1.920       .  S
C875        C876   1.404       .  A
C875        H879   1.083       .  S
C876        C877   1.411       .  A
C876        C880   1.487       .  S
C877        C878   1.402       .  A
C877       Br889   1.918       .  S
C878        H881   1.083       .  S
C880        C882   1.404       .  A
C880        C886   1.408       .  A
C882        C883   1.404       .  A
C882        H887   1.084       .  S
C883        C884   1.415       .  A
C883       Br891   1.920       .  S
C884        C885   1.406       .  A
C885        C886   1.400       .  A
C885        H888   1.083       .  S
C886       Br892   1.919       .  S
C893        C894   1.409       .  A
C893        C898   1.405       .  A
C894        C895   1.399       .  A
C894       Br910   1.918       .  S
C895        C896   1.401       .  A
C895        H899   1.083       .  S
C896        C897   1.407       .  A
C896        C900   1.476       .  S
C897        C898   1.400       .  A
C897       Br909   1.919       .  S
C898        H901   1.083       .  S
C900        C902   1.402       .  A
C900        C906   1.405       .  A
C902        C903   1.400       .  A
C902        H907   1.083       .  S
C903        C904   1.410       .  A
C903       Br911   1.918       .  S
C904        C905   1.401       .  A
C905        C906   1.398       .  A
C905        H908   1.079       .  S
C906       Br912   1.918       .  S
C913        C914   1.412       .  A
C913        C918   1.405   1_545  A
C914        C915   1.402       .  A
C914       Br930   1.919       .  S
C915        C916   1.403       .  A
C915        H919   1.084       .  S
C916        C917   1.409   1_545  A
C916        C920   1.483   1_545  S
C917        C918   1.400       .  A
C917       Br929   1.919       .  S
C918        H921   1.083       .  S
C920        C922   1.394       .  A
C920        C926   1.400   1_565  A
C922        C923   1.401       .  A
C922        H927   1.084       .  S
C923        C924   1.442       .  A
C923       Br931   1.930       .  S
C924        C925   1.422   1_565  A
C925        C926   1.399       .  A
C925        H928   1.083       .  S
C926       Br932   1.917       .  S
C933        C934   1.433       .  A
C933        C938   1.424   1_565  A
C934        C935   1.403       .  A
C934       Br950   1.917       .  S
C935        C936   1.396   1_565  A
C935        H939   1.084       .  S
C936        C937   1.398       .  A
C936        C940   1.479       .  S
C937        C938   1.395       .  A
C937       Br949   1.921       .  S
C938        H941   1.077       .  S
C940        C942   1.401       .  A
C940        C946   1.407   1_545  A
C942        C943   1.400       .  A
C942        H947   1.084       .  S
C943        C944   1.415       .  A
C943       Br951   1.921       .  S
C944        C945   1.405   1_545  A
C945        C946   1.400       .  A
C945        H948   1.084       .  S
C946       Br952   1.920       .  S
C953        C954   1.411       .  A
C953        C958   1.405       .  A
C954        C955   1.401       .  A
C954       Br970   1.920       .  S
C955        C956   1.403       .  A
C955        H959   1.084       .  S
C956        C957   1.407       .  A
C956        C960   1.480       .  S
C957        C958   1.399       .  A
C957       Br969   1.920       .  S
C958        H961   1.083       .  S
C960        C962   1.394       .  A
C960        C966   1.402       .  A
C962        C963   1.399       .  A
C962        H967   1.084       .  S
C963        C964   1.436       .  A
C963       Br971   1.926       .  S
C964        C965   1.421       .  A
C965        C966   1.397       .  A
C965        H968   1.076       .  S
C966       Br972   1.921       .  S
C973        C974   1.411       .  A
C973        C978   1.406       .  A
C974        C975   1.398       .  A
C974       Br990   1.913       .  S
C975        C976   1.401       .  A
C975        H979   1.084       .  S
C976        C977   1.408       .  A
C976        C980   1.481       .  S
C977        C978   1.401       .  A
C977       Br989   1.919       .  S
C978        H981   1.083       .  S
C980        C982   1.397       .  A
C980        C986   1.402       .  A
C982        C983   1.403       .  A
C982        H987   1.084       .  S
C983        C984   1.436       .  A
C983       Br991   1.925       .  S
C984        C985   1.419       .  A
C985        C986   1.396       .  A
C985        H988   1.074       .  S
C986       Br992   1.921       .  S
