geometry optimzed in LAMMPS
_audit_creation_date              2020-12-01 
_audit_creation_method            'lammps2cif' 
_symmetry_space_group_name_H-M    'P1' 
_symmetry_Int_Tables_number       1 
_symmetry_cell_setting            triclinic 
loop_ 
_symmetry_equiv_pos_as_xyz 
  x,y,z 
_cell_length_a                    30.91756106 
_cell_length_b                    30.556392580850904 
_cell_length_c                    41.8409074299102 
_cell_angle_alpha                 89.7820586230427 
_cell_angle_beta                  90.34123673528795 
_cell_angle_gamma                 118.86302932009387 
loop_ 
_atom_site_label 
_atom_site_type_symbol 
_atom_site_fract_x 
_atom_site_fract_y 
_atom_site_fract_z 
_atom_site_charge 
Zn1        Zn  0.89281004  0.18365777  0.16252519     1.49700
Zn2        Zn  0.78737436  0.08619053  0.16807602     1.49400
Zn3        Zn  0.80423690  0.19092414  0.19793234     1.49100
Zn4        Zn  0.79861687  0.17554115  0.12370099     1.49500
O5          O  0.82107201  0.15903317  0.16311967    -1.81900
O6          O  0.90956463  0.12679364  0.16474739    -0.72600
O7          O  0.75296229  0.06756378  0.21038347    -0.72400
O8          O  0.86446783  0.23804647  0.22247907    -0.71900
O9          O  0.83570477  0.05947424  0.16783407    -0.72600
O10         O  0.92512965  0.22859406  0.20081020    -0.72200
O11         O  0.76294095  0.13945300  0.23032182    -0.72800
O12         O  0.75852360  0.21085281  0.13118993    -0.72100
O13         O  0.73872746  0.05084923  0.13218276    -0.72900
O14         O  0.76683986  0.22670421  0.18324647    -0.72300
O15         O  0.75455661  0.11414384  0.09929288    -0.72800
O16         O  0.85624456  0.21699992  0.09568180    -0.72700
O17         O  0.92188116  0.22210189  0.12151796    -0.72500
C18         C  0.88254242  0.07951491  0.16666887     0.79300
C19         C  0.74685245  0.09264760  0.23237979     0.79800
C20         C  0.90903427  0.24690457  0.22199514     0.78800
C21         C  0.74984599  0.22936536  0.15592875     0.79200
C22         C  0.73245106  0.06784437  0.10578153     0.80300
C23         C  0.90227501  0.23162500  0.09748733     0.79300
C24         C  0.99490134  0.31409728  0.29939392     0.82400
N25         N  0.97699475  0.32649489  0.32544693    -0.75900
C26         C  0.00496194  0.34242940  0.35244321     0.84900
N27         N  0.05030651  0.34607987  0.35323559    -0.75800
C28         C  0.06826872  0.33366280  0.32739165     0.85000
N29         N  0.04026486  0.31752854  0.30047195    -0.77500
C30         C  0.69489737  0.01453552  0.31385588     0.82400
N31         N  0.67979710  0.02853757  0.34039675    -0.75900
C32         C  0.66683466  0.99896779  0.36672441     0.84900
N33         N  0.66833993  0.95538022  0.36632001    -0.75800
C34         C  0.68354167  0.94132844  0.33977934     0.85000
N35         N  0.69679039  0.97119795  0.31358570    -0.77500
C36         C  0.97278087  0.31668141  0.02102111     0.82400
N37         N  0.97406540  0.36161924  0.02121718    -0.75900
C38         C  0.99168269  0.39270517  0.99568562     0.84900
N39         N  0.00788808  0.37820131  0.96983322    -0.75800
C40         C  0.00628693  0.33310527  0.96940185     0.85000
N41         N  0.98886048  0.30220351  0.99507492    -0.77500
C42         C  0.64355723  0.99700954  0.03134393     0.82400
N43         N  0.66059313  0.98553969  0.00461376    -0.75900
C44         C  0.63315569  0.97321085  0.97740222     0.84900
N45         N  0.58897252  0.97252865  0.97691870    -0.75800
C46         C  0.57196368  0.98432646  0.00359001     0.85000
N47         N  0.59966659  0.99675653  0.03070332    -0.77500
Zn48       Zn  0.52356006  0.49292567  0.54060826     1.49700
Zn49       Zn  0.52389507  0.48883688  0.46617862     1.49400
Zn50       Zn  0.43283099  0.49370962  0.50259676     1.49100
Zn51       Zn  0.54025358  0.59095655  0.50086465     1.49500
O52         O  0.50485247  0.51700101  0.50245260    -1.81900
O53         O  0.55396746  0.44840223  0.53140312    -0.72600
O54         O  0.46453141  0.44747119  0.43914655    -0.72400
O55         O  0.40031015  0.45012295  0.54215091    -0.71900
O56         O  0.55555685  0.44585676  0.47855806    -0.72600
O57         O  0.46480178  0.45231150  0.56756160    -0.72200
O58         O  0.40229148  0.45253668  0.46237156    -0.72800
O59         O  0.49208425  0.61959491  0.50002161    -0.72100
O60         O  0.57049328  0.54334074  0.43728374    -0.72900
O61         O  0.41783532  0.55260829  0.50236816    -0.72300
O62         O  0.58184657  0.61399689  0.46009553    -0.72800
O63         O  0.58370513  0.61921201  0.54085105    -0.72700
O64         O  0.57018725  0.55046728  0.56752131    -0.72500
C65         C  0.56428719  0.43305456  0.50583177     0.79300
C66         C  0.41961655  0.43746990  0.43991976     0.79800
C67         C  0.41893634  0.43797058  0.56561327     0.78800
C68         C  0.44511155  0.60005331  0.50103029     0.79200
C69         C  0.58938831  0.59060154  0.43744395     0.80300
C70         C  0.59040983  0.59772120  0.56513769     0.79300
Zn71       Zn  0.71455354  0.86020574  0.87360575     1.49700
Zn72       Zn  0.71728620  0.85735782  0.79909094     1.49400
Zn73       Zn  0.62567937  0.76696076  0.83603473     1.49100
Zn74       Zn  0.63295185  0.87430643  0.83359307     1.49500
O75         O  0.67230203  0.83934382  0.83551319    -1.81900
O76         O  0.78779322  0.90148583  0.86362091    -0.72600
O77         O  0.70248672  0.79633165  0.77381468    -0.72400
O78         O  0.63769598  0.73683285  0.87632698    -0.71900
O79         O  0.79104044  0.89385636  0.81110018    -0.72600
O80         O  0.70273400  0.80024665  0.89971688    -0.72200
O81         O  0.63674077  0.73381723  0.79689679    -0.72800
O82         O  0.55937486  0.82715994  0.83223091    -0.72100
O83         O  0.70333047  0.90054801  0.76916144    -0.72900
O84         O  0.55301878  0.75186568  0.83562606    -0.72300
O85         O  0.64769042  0.91536973  0.79348630    -0.72800
O86         O  0.64373978  0.91569944  0.87320646    -0.72700
O87         O  0.69598061  0.90084852  0.90217856    -0.72500
C88         C  0.81255076  0.91015594  0.83794673     0.79300
C89         C  0.66910331  0.75083091  0.77484782     0.79800
C90         C  0.66970147  0.75455666  0.89874650     0.78800
C91         C  0.53303263  0.77993796  0.83366114     0.79200
C92         C  0.67515791  0.92007996  0.76977751     0.80300
C93         C  0.66789560  0.92014010  0.89882213     0.79300
C94         C  0.67463173  0.65730447  0.64410795     0.82400
N95         N  0.71729693  0.65496390  0.64444913    -0.75900
C96         C  0.74535415  0.66605103  0.67139116     0.84900
N97         N  0.73005884  0.67942046  0.69819775    -0.75800
C98         C  0.68712834  0.68136548  0.69817551     0.85000
N99         N  0.65935738  0.67046921  0.67105271    -0.77500
C100        C  0.67305848  0.01915805  0.63867364     0.82400
N101        N  0.71984212  0.05737101  0.63660952    -0.75900
C102        C  0.75219634  0.06679172  0.66099338     0.84900
N103        N  0.73724550  0.03774115  0.68747012    -0.75800
C104        C  0.69060812  0.99961593  0.68970867     0.85000
N105        N  0.65810495  0.99007170  0.66530776    -0.77500
C106        C  0.64777481  0.66769907  0.97693312     0.82400
N107        N  0.60385230  0.62508772  0.97794198    -0.75900
C108        C  0.58953683  0.59656166  0.00478946     0.84900
N109        N  0.61978096  0.61130014  0.03077345    -0.75800
C110        C  0.66365551  0.65410965  0.03000789     0.85000
N111        N  0.67784926  0.68239549  0.00301851    -0.77500
Zn112      Zn  0.03917004  0.55902530  0.49982877     1.49700
Zn113      Zn  0.94701653  0.46794554  0.46359582     1.49400
Zn114      Zn  0.03606220  0.45363893  0.49402111     1.49100
Zn115      Zn  0.95651137  0.46394220  0.53787304     1.49500
O116        O  0.99503033  0.48632096  0.49875920    -1.81900
O117        O  0.02718858  0.59049498  0.46035603    -0.72600
O118        O  0.95502126  0.42163738  0.43329851    -0.72400
O119        O  0.10926714  0.50378619  0.49235923    -0.71900
O120        O  0.96099726  0.52815699  0.43728229    -0.72600
O121        O  0.11194294  0.57689118  0.49997115    -0.72200
O122        O  0.01713511  0.41249228  0.45346228    -0.72800
O123        O  0.97769195  0.42261062  0.56351285    -0.72100
O124        O  0.87534134  0.43368620  0.47804346    -0.72900
O125        O  0.02914132  0.41046179  0.53238985    -0.72300
O126        O  0.88265700  0.42281651  0.52985798    -0.72800
O127        O  0.96917656  0.52262591  0.56531967    -0.72700
O128        O  0.02700378  0.58909224  0.53973235    -0.72500
C129        C  0.99487393  0.57345435  0.43812615     0.79300
C130        C  0.98465262  0.40393334  0.43195239     0.79800
C131        C  0.13375448  0.55093713  0.49615294     0.78800
C132        C  0.00592878  0.40402642  0.55848715     0.79200
C133        C  0.85599120  0.41610552  0.50512822     0.80300
C134        C  0.99827297  0.56938622  0.56341649     0.79300
Zn135      Zn  0.81472903  0.62308265  0.12683174     1.49700
Zn136      Zn  0.80962456  0.61700936  0.20181334     1.49400
Zn137      Zn  0.90886498  0.70069806  0.16636538     1.49100
Zn138      Zn  0.81128117  0.71246744  0.16648074     1.49500
O139        O  0.83618864  0.66374634  0.16549413    -1.81900
O140        O  0.78072810  0.54848867  0.13609495    -0.72600
O141        O  0.86575540  0.62580888  0.23072241    -0.72400
O142        O  0.93861712  0.68815607  0.12640482    -0.71900
O143        O  0.76994795  0.54352489  0.18865626    -0.72600
O144        O  0.87183379  0.63868770  0.09784643    -0.72200
O145        O  0.93390564  0.68293750  0.20642695    -0.72800
O146        O  0.86788910  0.78510810  0.16622042    -0.72100
O147        O  0.76651172  0.63363684  0.22911447    -0.72900
O148        O  0.93458194  0.77539491  0.16746311    -0.72300
O149        O  0.77043476  0.70184813  0.20685661    -0.72800
O150        O  0.76761625  0.70243682  0.12749515    -0.72700
O151        O  0.76857947  0.63888006  0.10203880    -0.72500
C152        C  0.76393714  0.52268391  0.16145134     0.79300
C153        C  0.91239038  0.65359931  0.22974555     0.79800
C154        C  0.91842624  0.66409281  0.10091551     0.78800
C155        C  0.91479557  0.80350288  0.16689017     0.79200
C156        C  0.75571865  0.66881960  0.22887873     0.80300
C157        C  0.75430020  0.67137462  0.10443201     0.79300
C158        C  0.65779969  0.67286778  0.35898715     0.82400
N159        N  0.66043672  0.71832379  0.35996829    -0.75900
C160        C  0.67795270  0.74996290  0.33474314     0.84900
N161        N  0.69285164  0.73558317  0.30824042    -0.75800
C162        C  0.69021057  0.69005668  0.30687938     0.85000
N163        N  0.67269073  0.65839845  0.33235067    -0.77500
C164        C  0.99941332  0.67362019  0.30714962     0.82400
N165        N  0.98576519  0.64556376  0.33424013    -0.75900
C166        C  0.01667855  0.66014063  0.35991661     0.84900
N167        N  0.06090275  0.70231843  0.35839223    -0.75800
C168        C  0.07468847  0.73055506  0.33142654     0.85000
N169        N  0.04363063  0.71596391  0.30585541    -0.77500
Zn170      Zn  0.53708367  0.96848119  0.50101453     1.49700
Zn171      Zn  0.52261031  0.05418114  0.53653073     1.49400
Zn172      Zn  0.52180532  0.05100373  0.46178340     1.49100
Zn173      Zn  0.43123338  0.96111366  0.49956733     1.49500
O174        O  0.50277020  0.00842558  0.49981897    -1.81900
O175        O  0.57611105  0.98140835  0.54159338    -0.72600
O176        O  0.55565810  0.12884823  0.52447606    -0.72400
O177        O  0.57356542  0.04390754  0.43715302    -0.71900
O178        O  0.56786471  0.04205926  0.56543082    -0.72600
O179        O  0.58308846  0.98576080  0.46376261    -0.72200
O180        O  0.54732343  0.12418312  0.47171917    -0.72800
O181        O  0.40049248  0.97018471  0.45849980    -0.72100
O182        O  0.46258492  0.03749547  0.56286238    -0.72900
O183        O  0.46431225  0.02999985  0.43223250    -0.72300
O184        O  0.39937883  0.97316491  0.53872530    -0.72800
O185        O  0.41652490  0.88780938  0.50060523    -0.72700
O186        O  0.49080661  0.89365425  0.49951195    -0.72500
C187        C  0.58466634  0.01142444  0.56468353     0.79300
C188        C  0.56045179  0.14979661  0.49730836     0.79800
C189        C  0.59321639  0.01598284  0.44049459     0.78800
C190        C  0.41884995  0.99800788  0.43402299     0.79200
C191        C  0.41719753  0.00468300  0.56150830     0.80300
C192        C  0.44401394  0.86724783  0.50003401     0.79300
Zn193      Zn  0.15671986  0.29009144  0.79392605     1.49700
Zn194      Zn  0.23922744  0.37621749  0.83686180     1.49400
Zn195      Zn  0.13148870  0.36540864  0.83301267     1.49100
Zn196      Zn  0.14577442  0.27928907  0.86850104     1.49500
O197        O  0.16844244  0.32795479  0.83324963    -1.81900
O198        O  0.21887983  0.31298733  0.76939580    -0.72600
O199        O  0.25127406  0.44764997  0.83736858    -0.72400
O200        O  0.09142947  0.35209474  0.79263467    -0.71900
O201        O  0.27808146  0.37213600  0.79900263    -0.72600
O202        O  0.11169880  0.30209297  0.76547714    -0.72200
O203        O  0.17644662  0.44038851  0.83424142    -0.72800
O204        O  0.09667730  0.28725171  0.89560738    -0.72100
O205        O  0.26589054  0.36346580  0.87789100    -0.72900
O206        O  0.08684179  0.34690697  0.87132504    -0.72300
O207        O  0.20316232  0.29418921  0.89798789    -0.72800
O208        O  0.11322801  0.20667087  0.85338661    -0.72700
O209        O  0.12676721  0.21561298  0.80110365    -0.72500
C210        C  0.26365980  0.34551313  0.77383595     0.79300
C211        C  0.22314716  0.46731645  0.83572229     0.79800
C212        C  0.08891541  0.32710913  0.76780682     0.78800
C213        C  0.07754083  0.31582056  0.89401747     0.79200
C214        C  0.24747026  0.32971541  0.89930747     0.80300
C215        C  0.11001527  0.18800029  0.82571014     0.79300
C216        C  0.35701391  0.34950560  0.64240012     0.82400
N217        N  0.35779385  0.30541318  0.64184854    -0.75900
C218        C  0.34680381  0.27657021  0.66858500     0.84900
N219        N  0.33529021  0.29249303  0.69582120    -0.75800
C220        C  0.33490894  0.33656144  0.69665396     0.85000
N221        N  0.34549729  0.36513462  0.66987082    -0.77500
C222        C  0.99680468  0.31968232  0.63427592     0.82400
N223        N  0.02345451  0.33609660  0.66171606    -0.75900
C224        C  0.00826908  0.30688690  0.68823598     0.84900
N225        N  0.96692648  0.26188590  0.68728042    -0.75800
C226        C  0.94017422  0.24559740  0.65994013     0.85000
N227        N  0.95525865  0.27483689  0.63351769    -0.77500
Zn228      Zn  0.36485192  0.24345707  0.17123941     1.49700
Zn229      Zn  0.28762005  0.14900423  0.21097461     1.49400
Zn230      Zn  0.27764953  0.14671180  0.13603868     1.49100
Zn231      Zn  0.37238696  0.14305496  0.16812445     1.49500
O232        O  0.32590565  0.17026035  0.17150376    -1.81900
O233        O  0.35635003  0.27397242  0.21174018    -0.72600
O234        O  0.21322485  0.11746562  0.20336158    -0.72400
O235        O  0.28755668  0.20536026  0.10850314    -0.71900
O236        O  0.30730122  0.20711185  0.24066027    -0.72600
O237        O  0.34784834  0.27172936  0.13287187    -0.72200
O238        O  0.20561656  0.10882809  0.15064001    -0.72800
O239        O  0.35797546  0.10324520  0.12640880    -0.72100
O240        O  0.30220704  0.09994461  0.23401471    -0.72900
O241        O  0.29046532  0.10260261  0.10666017    -0.72300
O242        O  0.36189951  0.09654310  0.20617183    -0.72800
O243        O  0.44581059  0.19899646  0.16788674    -0.72700
O244        O  0.43767835  0.26725970  0.16861696    -0.72500
C245        C  0.33383320  0.25410442  0.23755441     0.79300
C246        C  0.18637605  0.10237693  0.17830739     0.79800
C247        C  0.31738730  0.25207196  0.10994046     0.78800
C248        C  0.32424895  0.09033708  0.10508601     0.79200
C249        C  0.33258322  0.08355334  0.22997464     0.80300
C250        C  0.46480747  0.24661751  0.16790227     0.79300
C251        C  0.33387607  0.36741924  0.36265110     0.82400
N252        N  0.34960432  0.34907880  0.33842921    -0.75900
C253        C  0.32052335  0.32957886  0.31215394     0.84900
N254        N  0.27621596  0.32825160  0.31028080    -0.75800
C255        C  0.26041756  0.34646140  0.33434724     0.85000
N256        N  0.28950484  0.36605228  0.36053273    -0.77500
C257        C  0.31725124  0.98850658  0.30229620     0.82400
N258        N  0.27453620  0.94438656  0.30209116    -0.75900
C259        C  0.26122141  0.91372736  0.32799857     0.84900
N260        N  0.29099437  0.92784205  0.35416352    -0.75800
C261        C  0.33349977  0.97186563  0.35463293     0.85000
N262        N  0.34675760  0.00247464  0.32869571    -0.77500
C263        C  0.33077814  0.35544305  0.97927035     0.82400
N264        N  0.37414540  0.39869838  0.97967527    -0.75900
C265        C  0.40240373  0.41358320  0.00656314     0.84900
N266        N  0.38657838  0.38455430  0.03320265    -0.75800
C267        C  0.34292006  0.34137387  0.03294317     0.85000
N268        N  0.31504160  0.32668420  0.00592583    -0.77500
Zn269      Zn  0.10164695  0.79283279  0.83053946     1.49700
Zn270      Zn  0.19968641  0.81519160  0.87010561     1.49400
Zn271      Zn  0.20064029  0.80865974  0.79463546     1.49100
Zn272      Zn  0.19485430  0.90220861  0.82887913     1.49500
O273        O  0.17437629  0.82997550  0.83085811    -1.81900
O274        O  0.07506844  0.75299873  0.87130574    -0.72600
O275        O  0.24564256  0.78591327  0.86163226    -0.72400
O276        O  0.14449084  0.76167253  0.76567099    -0.71900
O277        O  0.14339435  0.76839044  0.89816092    -0.72600
O278        O  0.07655505  0.74888277  0.79155083    -0.72200
O279        O  0.24180674  0.77505036  0.80899651    -0.72800
O280        O  0.23739334  0.93233632  0.78958325    -0.72100
O281        O  0.23596866  0.87703459  0.89652723    -0.72900
O282        O  0.24266970  0.86898087  0.76697436    -0.72300
O283        O  0.23239666  0.93812333  0.86947404    -0.72800
O284        O  0.13570427  0.91484841  0.82484597    -0.72700
O285        O  0.07156567  0.83854874  0.82731013    -0.72500
C286        C  0.09660564  0.74810386  0.89600805     0.79300
C287        C  0.25754694  0.77073773  0.83652648     0.79800
C288        C  0.09769098  0.74205438  0.76756231     0.78800
C289        C  0.25248937  0.91456725  0.76740809     0.79200
C290        C  0.24507734  0.92213880  0.89406126     0.80300
C291        C  0.08915651  0.88558213  0.82492816     0.79300
C292        C  0.00622888  0.67695039  0.69187215     0.82400
N293        N  0.01749928  0.65924882  0.66523795    -0.75900
C294        C  0.98533521  0.64275505  0.64024255     0.84900
N295        N  0.94211421  0.64375360  0.64199805    -0.75800
C296        C  0.93050163  0.66142816  0.66846321     0.85000
N297        N  0.96287964  0.67809715  0.69341411    -0.77500
C298        C  0.31707064  0.00552598  0.69085641     0.82400
N299        N  0.33110840  0.99052813  0.66412915    -0.75900
C300        C  0.34808420  0.02154205  0.63842739     0.84900
N301        N  0.35128169  0.06730535  0.63960888    -0.75800
C302        C  0.33735516  0.08258265  0.66616523     0.85000
N303        N  0.32017786  0.05136925  0.69177007    -0.77500
C304        C  0.02425566  0.66364070  0.97306126     0.82400
N305        N  0.02148719  0.61807634  0.97293168    -0.75900
C306        C  0.00208795  0.58659392  0.99810730     0.84900
N307        N  0.98546588  0.60129046  0.02365989    -0.75800
C308        C  0.98829656  0.64696730  0.02414033     0.85000
N309        N  0.00766496  0.67838474  0.99873846    -0.77500
C310        C  0.32249537  0.99118525  0.97295664     0.82400
N311        N  0.36313555  0.98517578  0.97404186    -0.75900
C312        C  0.39181143  0.99746242  0.00066811     0.84900
N313        N  0.37937266  0.01586212  0.02636336    -0.75800
C314        C  0.33879950  0.02190288  0.02568430     0.85000
N315        N  0.30999340  0.00950839  0.99889177    -0.77500
C316        C  0.04583227  0.01738851  0.16685829     0.82400
N317        N  0.02540584  0.04805982  0.16846696    -0.75900
C318        C  0.97549597  0.02878605  0.16864811     0.84900
N319        N  0.94596909  0.97834442  0.16776875    -0.75800
C320        C  0.96573192  0.94716059  0.16648680     0.85000
N321        N  0.01581980  0.96695218  0.16554435    -0.77500
C322        C  0.71628609  0.36571489  0.49289141     0.82400
N323        N  0.68956034  0.38918447  0.48616797    -0.75900
C324        C  0.63984574  0.36536474  0.49030910     0.84900
N325        N  0.61625141  0.31652126  0.49965620    -0.75800
C326        C  0.64263681  0.29215889  0.50559914     0.85000
N327        N  0.69270968  0.31727605  0.50284740    -0.77500
C328        C  0.27250400  0.64990573  0.50025567     0.82400
N329        N  0.29810089  0.70049042  0.50064140    -0.75900
C330        C  0.34824571  0.72539047  0.50084412     0.84900
N331        N  0.37349051  0.69884108  0.50088805    -0.75800
C332        C  0.34803405  0.64759972  0.50069836     0.85000
N333        N  0.29766358  0.62367979  0.50032533    -0.77500
C334        C  0.95317522  0.96577190  0.82441719     0.82400
N335        N  0.98387697  0.94571364  0.82096569    -0.75900
C336        C  0.03387562  0.97549913  0.82234223     0.84900
N337        N  0.05284093  0.02553753  0.82620692    -0.75800
C338        C  0.02272529  0.04604512  0.82961792     0.85000
N339        N  0.97288107  0.01592949  0.82920614    -0.77500
C340        C  0.39268189  0.68451539  0.83418526     0.82400
N341        N  0.36683200  0.71006102  0.83036153    -0.75900
C342        C  0.31638903  0.68438416  0.82750473     0.84900
N343        N  0.29236548  0.63340762  0.82850415    -0.75800
C344        C  0.31806106  0.60812300  0.83296621     0.85000
N345        N  0.36785388  0.63395587  0.83554232    -0.77500
C346        C  0.60733992  0.29968312  0.16813780     0.82400
N347        N  0.62610259  0.35029544  0.17030061    -0.75900
C348        C  0.67593931  0.38122140  0.17149049     0.84900
N349        N  0.70677404  0.36118352  0.17152057    -0.75800
C350        C  0.68855466  0.31103604  0.16949144     0.85000
N351        N  0.63890187  0.28046613  0.16763992    -0.77500
C352        C  0.27934652  0.94643642  0.74108527    -0.11100
C353        C  0.29800259  0.97287680  0.71810479    -0.12600
C354        C  0.06754915  0.71412275  0.74090540    -0.11100
C355        C  0.04034790  0.69542941  0.71830421    -0.12600
C356        C  0.29213128  0.97514866  0.94464125    -0.11100
C357        C  0.27004121  0.95495435  0.92045938    -0.12600
C358        C  0.04621409  0.69594275  0.94609029    -0.11100
C359        C  0.06758079  0.71972314  0.92276277    -0.12600
C360        C  0.29089427  0.74837584  0.84003770    -0.14200
C361        C  0.28708366  0.71061239  0.82158248    -0.29400
H362        H  0.31652618  0.76045706  0.86010024     0.14800
H363        H  0.25786893  0.69487768  0.80372803     0.15400
C364        C  0.05389927  0.90557149  0.82269804    -0.14200
C365        C  0.06856866  0.95477893  0.82132704    -0.29400
H366        H  0.01472711  0.87893955  0.82331713     0.14800
H367        H  0.10779054  0.98130784  0.82121982     0.15400
C368        C  0.13190703  0.07888654  0.18162294    -0.14200
C369        C  0.10024626  0.03878505  0.16446626    -0.29400
H370        H  0.11744321  0.09414853  0.19945553     0.14800
H371        H  0.11457160  0.02044291  0.14887870     0.15400
C372        C  0.32816490  0.04277477  0.05339152    -0.11100
C373        C  0.32511557  0.06275891  0.07749942    -0.12600
C374        C  0.32779651  0.30998728  0.06072643    -0.11100
C375        C  0.31956209  0.28335843  0.08373502    -0.12600
C376        C  0.33335377  0.04961269  0.25359216    -0.11100
C377        C  0.32881300  0.02177679  0.27543357    -0.12600
C378        C  0.33442583  0.30789526  0.28663901    -0.11100
C379        C  0.33747765  0.28532778  0.26401483    -0.12600
C380        C  0.51922428  0.28036853  0.16749506    -0.14200
C381        C  0.55306727  0.26464433  0.16724149    -0.29400
H382        H  0.53180189  0.32023843  0.16789947     0.14800
H383        H  0.54076902  0.22484219  0.16675475     0.15400
C384        C  0.35905272  0.21088290  0.64051389    -0.11100
C385        C  0.34592334  0.22762427  0.66812731     0.11000
C386        C  0.33095706  0.19664226  0.69533619    -0.11100
C387        C  0.32843404  0.14977192  0.69478198    -0.11100
C388        C  0.34094494  0.13273913  0.66703995     0.11000
C389        C  0.35665040  0.16402502  0.63998713    -0.11100
H390        H  0.37091235  0.23381283  0.61919060     0.15000
H391        H  0.32064714  0.20830546  0.71708359     0.15000
H392        H  0.31640817  0.12681754  0.71609443     0.15000
H393        H  0.36674979  0.15221224  0.61821762     0.15000
C394        C  0.04413363  0.10067233  0.83443423    -0.14200
C395        C  0.08790888  0.13333262  0.82170465    -0.29400
H396        H  0.02283266  0.11442975  0.84748709     0.14800
H397        H  0.10675953  0.11975264  0.80602379     0.15400
C398        C  0.03676449  0.32157668  0.71697945    -0.11100
C399        C  0.05995239  0.32696874  0.74112833    -0.12600
C400        C  0.31869278  0.34977258  0.72526941    -0.11100
C401        C  0.29788910  0.35200375  0.74895393    -0.12600
C402        C  0.27690442  0.33354892  0.92680379    -0.11100
C403        C  0.30119932  0.34124389  0.95079828    -0.12600
C404        C  0.24475201  0.52254753  0.83488752    -0.14200
C405        C  0.29391744  0.55287211  0.83455858    -0.29400
H406        H  0.22000839  0.53830732  0.83392241     0.14800
H407        H  0.31821696  0.53657847  0.83567771     0.15400
C408        C  0.58085745  0.20472885  0.49453904    -0.14200
C409        C  0.61750828  0.23796073  0.51321322    -0.29400
H410        H  0.56890844  0.21845209  0.47414636     0.14800
H411        H  0.63366919  0.22467607  0.53138668     0.15400
C412        C  0.36572921  0.00799028  0.61049659    -0.11100
C413        C  0.38594262  0.00337954  0.58717260    -0.12600
C414        C  0.38806089  0.99211970  0.40681682    -0.11100
C415        C  0.36392847  0.98522980  0.38278165    -0.12600
C416        C  0.42200315  0.81167562  0.50003206    -0.14200
C417        C  0.37291123  0.78103814  0.50097189    -0.29400
H418        H  0.44672619  0.79580302  0.49925568     0.14800
H419        H  0.34871163  0.79755227  0.50166465     0.15400
C420        C  0.13785645  0.80622354  0.30223389    -0.11100
C421        C  0.12287217  0.77686903  0.33011281     0.11000
C422        C  0.15423635  0.79242582  0.35695273    -0.11100
C423        C  0.19926030  0.83650752  0.35607637    -0.11100
C424        C  0.21406730  0.86619700  0.32834344     0.11000
C425        C  0.18297500  0.85043208  0.30136367    -0.11100
H426        H  0.11464857  0.79525655  0.28109569     0.15000
H427        H  0.14394851  0.77074819  0.37881978     0.15000
H428        H  0.22223664  0.84745573  0.37732546     0.15000
H429        H  0.19329995  0.87235284  0.27959707     0.15000
C430        C  0.94818050  0.85847923  0.16692637    -0.14200
C431        C  0.93196065  0.89221328  0.16606834    -0.29400
H432        H  0.98761353  0.87147644  0.16773249     0.14800
H433        H  0.89253154  0.87926975  0.16547386     0.15400
C434        C  0.96895805  0.66041765  0.05132075    -0.11100
C435        C  0.94848202  0.66494383  0.07456289    -0.12600
C436        C  0.72784432  0.67221633  0.25523630    -0.11100
C437        C  0.70842324  0.67731890  0.27883582    -0.12600
C438        C  0.96686303  0.65999643  0.28002315    -0.11100
C439        C  0.94150373  0.65409436  0.25671842    -0.12600
C440        C  0.73972218  0.46750667  0.15902481    -0.14200
C441        C  0.69690922  0.43632610  0.17357924    -0.29400
H442        H  0.75714185  0.45197635  0.14365669     0.14800
H443        H  0.67664258  0.45141086  0.18646938     0.15400
C444        C  0.18863237  0.57516499  0.49637477    -0.14200
C445        C  0.21762161  0.62485385  0.49988379    -0.29400
H446        H  0.20545292  0.55143813  0.49365010     0.14800
H447        H  0.20060994  0.64847731  0.50220947     0.15400
C448        C  0.99824732  0.60540137  0.41200323    -0.11100
C449        C  0.00417112  0.63025690  0.38835619    -0.12600
C450        C  0.01132269  0.37516566  0.58351984    -0.11100
C451        C  0.00924057  0.35090071  0.60667393    -0.12600
C452        C  0.99528751  0.62181643  0.61241627    -0.11100
C453        C  0.99868818  0.60028551  0.58928171    -0.12600
C454        C  0.80157944  0.38673167  0.50829613    -0.14200
C455        C  0.77052115  0.39304799  0.48857637    -0.29400
H456        H  0.78673591  0.36125699  0.52843609     0.14800
H457        H  0.78540620  0.42167860  0.47016606     0.15400
C458        C  0.51036312  0.53509589  0.97863628    -0.11100
C459        C  0.54155331  0.54989719  0.00556436     0.11000
C460        C  0.52641396  0.51963963  0.03305727    -0.11100
C461        C  0.48116291  0.47549786  0.03352854    -0.11100
C462        C  0.45011232  0.46064252  0.00650258     0.11000
C463        C  0.46525032  0.49106026  0.97909896    -0.11100
H464        H  0.52074580  0.55746967  0.95705833     0.15000
H465        H  0.54953380  0.52993226  0.05423378     0.15000
H466        H  0.47067042  0.45295200  0.05503079     0.15000
H467        H  0.44229292  0.48089430  0.95785409     0.15000
C468        C  0.69594260  0.66734332  0.05723916    -0.11100
C469        C  0.72243102  0.67249044  0.07978198    -0.12600
C470        C  0.81981136  0.13788120  0.63151453    -0.11100
C471        C  0.80213501  0.11003050  0.65975084     0.11000
C472        C  0.83164947  0.12531693  0.68742935    -0.11100
C473        C  0.87707849  0.16872615  0.68725241    -0.11100
C474        C  0.89400376  0.19763256  0.65935602     0.11000
C475        C  0.86540321  0.18128503  0.63130502    -0.11100
H476        H  0.79806112  0.12672176  0.60973289     0.15000
H477        H  0.81911852  0.10458848  0.70957267     0.15000
H478        H  0.89834166  0.18014208  0.70921733     0.15000
H479        H  0.87765329  0.20254793  0.60933627     0.15000
C480        C  0.61391461  0.01046349  0.59094627    -0.11100
C481        C  0.63935933  0.01179635  0.61314557    -0.12600
C482        C  0.85003811  0.64467397  0.64371108    -0.11100
C483        C  0.88292123  0.66220339  0.66979803     0.11000
C484        C  0.86980270  0.68041836  0.69678745    -0.11100
C485        C  0.82498021  0.68135097  0.69751363    -0.11100
C486        C  0.79240498  0.66421587  0.67123080     0.11000
C487        C  0.80545927  0.64571914  0.64440634    -0.11100
H488        H  0.85871662  0.63021260  0.62254239     0.15000
H489        H  0.89420563  0.69414761  0.71731775     0.15000
H490        H  0.81609675  0.69590031  0.71856443     0.15000
H491        H  0.78124186  0.63200001  0.62378603     0.15000
C492        C  0.86711092  0.94158711  0.83975958    -0.14200
C493        C  0.89871835  0.93323869  0.82210935    -0.29400
H494        H  0.88186024  0.97131509  0.85743782     0.14800
H495        H  0.88444971  0.90071993  0.80660864     0.15400
C496        C  0.67350312  0.69857920  0.72632316    -0.11100
C497        C  0.66820218  0.71871415  0.74958148    -0.12600
C498        C  0.67383902  0.94729348  0.74229530    -0.11100
C499        C  0.67712572  0.96971419  0.71797528    -0.12600
C500        C  0.66079556  0.69789584  0.94858344    -0.11100
C501        C  0.66680958  0.72285135  0.92495012    -0.12600
C502        C  0.47823024  0.75829836  0.83281977    -0.14200
C503        C  0.44753169  0.70903088  0.83604388    -0.29400
H504        H  0.46303591  0.78337679  0.82933822     0.14800
H505        H  0.46337254  0.68449993  0.83956861     0.15400
C506        C  0.38839067  0.40671068  0.59103159    -0.11100
C507        C  0.37087829  0.38053469  0.61426279    -0.12600
C508        C  0.38825092  0.40965391  0.41379986    -0.11100
C509        C  0.36394904  0.38905793  0.39047573    -0.12600
C510        C  0.64514381  0.64362894  0.61540522    -0.11100
C511        C  0.62102794  0.62666309  0.59135477    -0.12600
C512        C  0.61805963  0.61780783  0.41022231    -0.11100
C513        C  0.63799080  0.64065751  0.38627484    -0.12600
C514        C  0.58637041  0.39943473  0.50855910    -0.14200
C515        C  0.61255776  0.39349002  0.48502353    -0.29400
H516        H  0.58383909  0.38156591  0.53149874     0.14800
H517        H  0.61936892  0.41490335  0.46309327     0.15400
C518        C  0.42242261  0.63375141  0.50067006    -0.14200
C519        C  0.37309195  0.61619475  0.50104441    -0.29400
H520        H  0.44697122  0.67388981  0.50000363     0.14800
H521        H  0.34901930  0.57594639  0.50155139     0.15400
C522        C  0.49558958  0.97300557  0.97509966    -0.11100
C523        C  0.52463758  0.98534392  0.00300448     0.11000
C524        C  0.50863094  0.99989014  0.03034140    -0.11100
C525        C  0.46519334  0.00308400  0.02964551    -0.11100
C526        C  0.43663681  0.99177470  0.00159874     0.11000
C527        C  0.45197969  0.97612945  0.97441726    -0.11100
H528        H  0.50676011  0.96146301  0.95365731     0.15000
H529        H  0.52995837  0.00948243  0.05229546     0.15000
H530        H  0.45434197  0.01495976  0.05107969     0.15000
H531        H  0.43071190  0.96694996  0.95244744     0.15000
C532        C  0.66070604  0.94478369  0.92562936    -0.11100
C533        C  0.65011873  0.95985525  0.94923454    -0.12600
C534        C  0.97256865  0.45523698  0.02145623    -0.11100
C535        C  0.99389440  0.44210743  0.99623575     0.11000
C536        C  0.01777903  0.47682955  0.97166156    -0.11100
C537        C  0.02041187  0.52367280  0.97232536    -0.11100
C538        C  0.99917582  0.53687514  0.99755480     0.11000
C539        C  0.97517685  0.50212552  0.02211037    -0.11100
H540        H  0.95374133  0.42927853  0.04072308     0.15000
H541        H  0.03476956  0.46801807  0.95195121     0.15000
H542        H  0.03932195  0.54959420  0.95305371     0.15000
H543        H  0.95827969  0.51103530  0.04183199     0.15000
C544        C  0.02574871  0.31995152  0.94235358    -0.11100
C545        C  0.04671797  0.31503363  0.91964214    -0.12600
C546        C  0.66549468  0.85985803  0.36480264    -0.11100
C547        C  0.68374245  0.89311614  0.33889486     0.11000
C548        C  0.70101407  0.87931563  0.31180106    -0.11100
C549        C  0.69948019  0.83297963  0.31049354    -0.11100
C550        C  0.68061622  0.79947018  0.33624843     0.11000
C551        C  0.66392231  0.81354683  0.36348545    -0.11100
H552        H  0.65186911  0.86928484  0.38601913     0.15000
H553        H  0.71545684  0.90414569  0.29144828     0.15000
H554        H  0.71281663  0.82337515  0.28921124     0.15000
H555        H  0.64923155  0.78866010  0.38379433     0.15000
C556        C  0.64726270  0.01119722  0.39401508    -0.11100
C557        C  0.62553120  0.01630526  0.41615111    -0.15300
C558        C  0.14718507  0.35641989  0.35635241    -0.11100
C559        C  0.11772922  0.33760248  0.32880380     0.11000
C560        C  0.13588885  0.32238548  0.30287612    -0.11100
C561        C  0.18237351  0.32553585  0.30459350    -0.11100
C562        C  0.21166475  0.34406397  0.33224830     0.11000
C563        C  0.19364681  0.35966044  0.35804128    -0.11100
H564        H  0.13437638  0.36859532  0.37675354     0.15000
H565        H  0.11413363  0.30775270  0.28130491     0.15000
H566        H  0.19521817  0.31327412  0.28424913     0.15000
H567        H  0.21524780  0.37409551  0.37969064     0.15000
C568        C  0.98335833  0.37593094  0.40423765    -0.11100
C569        C  0.98861916  0.35782890  0.38004460    -0.12600
C570        C  0.67361648  0.01393505  0.05948943    -0.11100
C571        C  0.69961484  0.03463592  0.08210468    -0.12600
C572        C  0.95301958  0.28446636  0.04812353    -0.11100
C573        C  0.93247820  0.25982920  0.07126276    -0.12600
C574        C  0.72360794  0.06764944  0.26126387    -0.11100
C575        C  0.70875606  0.04492628  0.28582408    -0.12600
C576        C  0.96553452  0.29539022  0.27098170    -0.11100
C577        C  0.94106488  0.27591057  0.24751474    -0.12600
C578        C  0.71758875  0.25240832  0.15278840    -0.14200
C579        C  0.72264089  0.29007876  0.17158982    -0.29400
H580        H  0.68944338  0.23858770  0.13417453     0.14800
H581        H  0.75350554  0.30708172  0.18822389     0.15400
C582        C  0.90490709  0.04616987  0.16748014    -0.14200
C583        C  0.95399413  0.06300761  0.16869021    -0.29400
H584        H  0.87977797  0.00620849  0.16710277     0.14800
H585        H  0.97919109  0.10294060  0.16923891     0.15400
loop_ 
_geom_bond_atom_site_label_1 
_geom_bond_atom_site_label_2 
_geom_bond_distance 
_geom_bond_site_symmetry_2 
_ccdc_geom_bond_type 
Zn1           O5   1.969       .  S
Zn1           O6   2.040       .  S
Zn1          O10   2.030       .  S
Zn1          O17   2.029       .  S
Zn2           O5   1.960       .  S
Zn2           O7   2.005       .  S
Zn2           O9   2.019       .  S
Zn2          O13   2.025       .  S
Zn3           O5   1.963       .  S
Zn3           O8   1.999       .  S
Zn3          O11   2.002       .  S
Zn3          O14   2.029       .  S
Zn4           O5   1.943       .  S
Zn4          O12   2.024       .  S
Zn4          O15   1.987       .  S
Zn4          O16   1.997       .  S
O6           C18   1.275       .  A
O7           C19   1.272       .  A
O8           C20   1.270       .  A
O9           C18   1.272       .  A
O10          C20   1.274       .  A
O11          C19   1.270       .  A
O12          C21   1.272       .  A
O13          C22   1.272       .  A
O14          C21   1.274       .  A
O15          C22   1.268       .  A
O16          C23   1.271       .  A
O17          C23   1.274       .  A
C18         C582   1.482       .  S
C19         C574   1.426       .  S
C20         C577   1.433       .  S
C21         C578   1.478       .  S
C22         C571   1.429       .  S
C23         C573   1.431       .  S
C24         C576   1.434       .  S
C24          N25   1.361       .  A
C24          N29   1.356   1_655  A
N25          C26   1.359   1_655  A
C26         C569   1.432   1_455  S
C26          N27   1.352       .  A
N27          C28   1.355       .  A
C28          N29   1.357       .  A
C28         C559   1.476       .  S
C30         C575   1.427       .  S
C30          N31   1.355       .  A
C30          N35   1.354   1_545  A
N31          C32   1.356   1_545  A
C32         C556   1.428   1_565  S
C32          N33   1.355       .  A
N33          C34   1.358       .  A
C34          N35   1.356       .  A
C34         C547   1.477       .  S
C36         C572   1.431       .  S
C36          N37   1.354       .  A
C36          N41   1.358   1_554  A
N37          C38   1.356   1_554  A
C38          N39   1.357   1_655  A
C38         C535   1.478       .  S
N39          C40   1.355       .  A
C40         C544   1.432       .  S
C40          N41   1.358   1_455  A
C42         C570   1.430   1_565  S
C42          N43   1.356       .  A
C42          N47   1.353       .  A
N43          C44   1.357   1_554  A
C44         C533   1.431       .  S
C44          N45   1.356       .  A
N45          C46   1.358   1_556  A
C46          N47   1.357       .  A
C46         C523   1.479       .  S
Zn48         O52   1.953       .  S
Zn48         O53   2.031       .  S
Zn48         O57   1.987       .  S
Zn48         O64   1.997       .  S
Zn49         O52   1.975       .  S
Zn49         O54   1.998       .  S
Zn49         O56   2.045       .  S
Zn49         O60   2.000       .  S
Zn50         O52   1.984       .  S
Zn50         O55   2.058       .  S
Zn50         O58   2.039       .  S
Zn50         O61   2.064       .  S
Zn51         O52   1.980       .  S
Zn51         O59   2.060       .  S
Zn51         O62   2.050       .  S
Zn51         O63   2.053       .  S
O53          C65   1.272       .  A
O54          C66   1.270       .  A
O55          C67   1.277       .  A
O56          C65   1.274       .  A
O57          C67   1.268       .  A
O58          C66   1.276       .  A
O59          C68   1.277       .  A
O60          C69   1.270       .  A
O61          C68   1.279       .  A
O62          C69   1.278       .  A
O63          C70   1.277       .  A
O64          C70   1.270       .  A
C65         C514   1.487       .  S
C66         C508   1.434       .  S
C67         C506   1.438       .  S
C68         C518   1.500       .  S
C69         C512   1.438       .  S
C70         C511   1.438       .  S
Zn71         O75   1.958       .  S
Zn71         O76   2.035       .  S
Zn71         O80   2.007       .  S
Zn71         O87   2.002       .  S
Zn72         O75   1.959       .  S
Zn72         O77   1.998       .  S
Zn72         O79   2.057       .  S
Zn72         O83   2.007       .  S
Zn73         O75   1.973       .  S
Zn73         O78   2.034       .  S
Zn73         O81   2.044       .  S
Zn73         O84   2.064       .  S
Zn74         O75   1.970       .  S
Zn74         O82   2.022       .  S
Zn74         O85   2.010       .  S
Zn74         O86   2.015       .  S
O76          C88   1.274       .  A
O77          C89   1.271       .  A
O78          C90   1.276       .  A
O79          C88   1.276       .  A
O80          C90   1.272       .  A
O81          C89   1.276       .  A
O82          C91   1.271       .  A
O83          C92   1.272       .  A
O84          C91   1.279       .  A
O85          C92   1.272       .  A
O86          C93   1.272       .  A
O87          C93   1.270       .  A
C88         C492   1.486       .  S
C89         C497   1.436       .  S
C90         C501   1.435       .  S
C91         C502   1.492       .  S
C92         C498   1.428       .  S
C93         C532   1.430       .  S
C94         C510   1.439       .  S
C94          N95   1.355       .  A
C94          N99   1.360       .  A
N95          C96   1.359       .  A
C96          N97   1.358       .  A
C96         C486   1.483       .  S
N97          C98   1.357       .  A
C98         C496   1.437       .  S
C98          N99   1.361       .  A
C100        C481   1.428       .  S
C100        N101   1.354       .  A
C100        N105   1.359   1_545  A
N101        C102   1.355       .  A
C102        N103   1.353       .  A
C102        C471   1.471       .  S
N103        C104   1.351   1_545  A
C104        C499   1.427       .  S
C104        N105   1.358       .  A
C106        C500   1.435       .  S
C106        N107   1.354       .  A
C106        N111   1.359   1_556  A
N107        C108   1.358   1_556  A
C108        N109   1.358       .  A
C108        C459   1.481       .  S
N109        C110   1.356       .  A
C110        C468   1.435       .  S
C110        N111   1.359       .  A
Zn112       O116   1.968   1_455  S
Zn112       O117   2.028       .  S
Zn112       O121   2.043       .  S
Zn112       O128   2.031       .  S
Zn113       O116   1.964       .  S
Zn113       O118   2.006       .  S
Zn113       O120   2.002       .  S
Zn113       O124   2.036       .  S
Zn114       O116   1.968   1_455  S
Zn114       O119   2.032       .  S
Zn114       O122   2.024       .  S
Zn114       O125   2.020       .  S
Zn115       O116   1.947       .  S
Zn115       O123   1.989       .  S
Zn115       O126   2.032       .  S
Zn115       O127   2.005       .  S
O117        C129   1.275   1_455  A
O118        C130   1.271       .  A
O119        C131   1.273       .  A
O120        C129   1.271       .  A
O121        C131   1.276       .  A
O122        C130   1.275   1_455  A
O123        C132   1.269   1_655  A
O124        C133   1.274       .  A
O125        C132   1.272       .  A
O126        C133   1.273       .  A
O127        C134   1.271       .  A
O128        C134   1.274   1_455  A
C129        C448   1.433       .  S
C130        C568   1.433       .  S
C131        C444   1.488       .  S
C132        C450   1.427       .  S
C133        C454   1.482       .  S
C134        C453   1.435       .  S
Zn135       O139   1.951       .  S
Zn135       O140   2.034       .  S
Zn135       O144   2.006       .  S
Zn135       O151   1.997       .  S
Zn136       O139   1.972       .  S
Zn136       O141   2.018       .  S
Zn136       O143   2.047       .  S
Zn136       O147   2.004       .  S
Zn137       O139   1.969       .  S
Zn137       O142   2.038       .  S
Zn137       O145   2.022       .  S
Zn137       O148   2.023       .  S
Zn138       O139   1.980       .  S
Zn138       O146   2.059       .  S
Zn138       O149   2.044       .  S
Zn138       O150   2.038       .  S
O140        C152   1.274       .  A
O141        C153   1.273       .  A
O142        C154   1.274       .  A
O143        C152   1.275       .  A
O144        C154   1.270       .  A
O145        C153   1.274       .  A
O146        C155   1.278       .  A
O147        C156   1.270       .  A
O148        C155   1.273       .  A
O149        C156   1.276       .  A
O150        C157   1.275       .  A
O151        C157   1.271       .  A
C152        C440   1.482       .  S
C153        C439   1.435       .  S
C154        C435   1.438       .  S
C155        C430   1.488       .  S
C156        C436   1.438       .  S
C157        C469   1.434       .  S
C158        C513   1.437       .  S
C158        N159   1.352       .  A
C158        N163   1.362       .  A
N159        C160   1.355       .  A
C160        N161   1.357       .  A
C160        C550   1.476       .  S
N161        C162   1.355       .  A
C162        C437   1.438       .  S
C162        N163   1.363       .  A
C164        C438   1.435       .  S
C164        N165   1.359       .  A
C164        N169   1.356   1_655  A
N165        C166   1.359   1_655  A
C166        C449   1.434       .  S
C166        N167   1.354       .  A
N167        C168   1.357       .  A
C168        N169   1.358       .  A
C168        C421   1.480       .  S
Zn170       O174   1.966   1_565  S
Zn170       O175   2.004       .  S
Zn170       O179   2.007       .  S
Zn170       O186   2.030       .  S
Zn171       O174   1.967       .  S
Zn171       O176   2.062       .  S
Zn171       O178   2.008       .  S
Zn171       O182   2.006       .  S
Zn172       O174   1.957       .  S
Zn172       O177   2.007       .  S
Zn172       O180   2.024       .  S
Zn172       O183   1.995       .  S
Zn173       O174   1.974   1_565  S
Zn173       O181   2.041       .  S
Zn173       O184   2.041       .  S
Zn173       O185   2.060       .  S
O175        C187   1.270   1_565  A
O176        C188   1.276       .  A
O177        C189   1.271       .  A
O178        C187   1.272       .  A
O179        C189   1.271   1_565  A
O180        C188   1.272       .  A
O181        C190   1.276       .  A
O182        C191   1.272       .  A
O183        C190   1.269   1_545  A
O184        C191   1.276   1_565  A
O185        C192   1.278       .  A
O186        C192   1.272       .  A
C187        C480   1.428       .  S
C188        C408   1.485       .  S
C189        C557   1.428       .  S
C190        C414   1.434       .  S
C191        C413   1.436       .  S
C192        C416   1.494       .  S
Zn193       O197   1.944       .  S
Zn193       O198   1.989       .  S
Zn193       O202   1.990       .  S
Zn193       O209   2.022       .  S
Zn194       O197   1.967       .  S
Zn194       O199   2.029       .  S
Zn194       O201   2.034       .  S
Zn194       O205   2.017       .  S
Zn195       O197   1.969       .  S
Zn195       O200   2.012       .  S
Zn195       O203   2.027       .  S
Zn195       O206   2.015       .  S
Zn196       O197   1.967       .  S
Zn196       O204   2.007       .  S
Zn196       O207   2.019       .  S
Zn196       O208   2.045       .  S
O198        C210   1.268       .  A
O199        C211   1.275       .  A
O200        C212   1.271       .  A
O201        C210   1.273       .  A
O202        C212   1.269       .  A
O203        C211   1.272       .  A
O204        C213   1.271       .  A
O205        C214   1.274       .  A
O206        C213   1.272       .  A
O207        C214   1.274       .  A
O208        C215   1.275       .  A
O209        C215   1.272       .  A
C210        C401   1.433       .  S
C211        C404   1.486       .  S
C212        C399   1.426       .  S
C213        C545   1.431       .  S
C214        C402   1.432       .  S
C215        C395   1.478       .  S
C216        C507   1.440       .  S
C216        N217   1.359       .  A
C216        N221   1.360       .  A
N217        C218   1.361       .  A
C218        N219   1.356       .  A
C218        C385   1.483       .  S
N219        C220   1.353       .  A
C220        C400   1.433       .  S
C220        N221   1.359       .  A
C222        C451   1.426   1_655  S
C222        N223   1.357   1_655  A
C222        N227   1.352       .  A
N223        C224   1.357       .  A
C224        C398   1.426       .  S
C224        N225   1.352   1_455  A
N225        C226   1.355       .  A
C226        N227   1.354       .  A
C226        C474   1.472       .  S
Zn228       O232   1.963       .  S
Zn228       O233   2.016       .  S
Zn228       O237   2.004       .  S
Zn228       O244   2.008       .  S
Zn229       O232   1.955       .  S
Zn229       O234   2.043       .  S
Zn229       O236   2.008       .  S
Zn229       O240   2.004       .  S
Zn230       O232   1.973       .  S
Zn230       O235   2.023       .  S
Zn230       O238   2.048       .  S
Zn230       O241   2.005       .  S
Zn231       O232   1.983       .  S
Zn231       O239   2.051       .  S
Zn231       O242   2.050       .  S
Zn231       O243   2.081       .  S
O233        C245   1.271       .  A
O234        C246   1.275       .  A
O235        C247   1.273       .  A
O236        C245   1.271       .  A
O237        C247   1.271       .  A
O238        C246   1.275       .  A
O239        C248   1.278       .  A
O240        C249   1.272       .  A
O241        C248   1.271       .  A
O242        C249   1.277       .  A
O243        C250   1.280       .  A
O244        C250   1.270       .  A
C245        C379   1.432       .  S
C246        C368   1.485       .  S
C247        C375   1.432       .  S
C248        C373   1.440       .  S
C249        C376   1.438       .  S
C250        C380   1.490       .  S
C251        C509   1.434       .  S
C251        N252   1.360       .  A
C251        N256   1.355       .  A
N252        C253   1.359       .  A
C253        C378   1.432       .  S
C253        N254   1.353       .  A
N254        C255   1.355       .  A
C255        N256   1.357       .  A
C255        C562   1.475       .  S
C257        C377   1.439   1_565  S
C257        N258   1.357       .  A
C257        N262   1.360   1_565  A
N258        C259   1.359       .  A
C259        N260   1.357       .  A
C259        C424   1.480       .  S
N260        C261   1.353       .  A
C261        C415   1.435       .  S
C261        N262   1.359   1_565  A
C263        C403   1.432       .  S
C263        N264   1.354       .  A
C263        N268   1.356   1_556  A
N264        C265   1.358   1_556  A
C265        N266   1.360       .  A
C265        C462   1.482       .  S
N266        C267   1.358       .  A
C267        C374   1.433       .  S
C267        N268   1.357       .  A
Zn269       O273   1.970       .  S
Zn269       O274   2.025       .  S
Zn269       O278   2.016       .  S
Zn269       O285   2.021       .  S
Zn270       O273   1.958       .  S
Zn270       O275   2.045       .  S
Zn270       O277   2.015       .  S
Zn270       O281   2.002       .  S
Zn271       O273   1.978       .  S
Zn271       O276   2.031       .  S
Zn271       O279   2.070       .  S
Zn271       O282   2.028       .  S
Zn272       O273   1.982       .  S
Zn272       O280   2.031       .  S
Zn272       O283   2.049       .  S
Zn272       O284   2.049       .  S
O274        C286   1.273       .  A
O275        C287   1.276       .  A
O276        C288   1.274       .  A
O277        C286   1.272       .  A
O278        C288   1.272       .  A
O279        C287   1.279       .  A
O280        C289   1.276       .  A
O281        C290   1.270       .  A
O282        C289   1.275       .  A
O283        C290   1.275       .  A
O284        C291   1.276       .  A
O285        C291   1.271       .  A
C286        C359   1.437       .  S
C287        C360   1.493       .  S
C288        C354   1.438       .  S
C289        C352   1.440       .  S
C290        C357   1.440       .  S
C291        C364   1.487       .  S
C292        C355   1.439       .  S
C292        N293   1.359       .  A
C292        N297   1.359   1_455  A
N293        C294   1.358   1_455  A
C294        C452   1.435       .  S
C294        N295   1.354       .  A
N295        C296   1.358       .  A
C296        N297   1.360       .  A
C296        C483   1.484       .  S
C298        C353   1.440   1_545  S
C298        N299   1.360   1_545  A
C298        N303   1.358       .  A
N299        C300   1.360   1_565  A
C300        C412   1.437       .  S
C300        N301   1.354       .  A
N301        C302   1.357       .  A
C302        N303   1.360       .  A
C302        C388   1.483       .  S
C304        C358   1.436       .  S
C304        N305   1.353       .  A
C304        N309   1.361       .  A
N305        C306   1.356       .  A
C306        N307   1.357   1_456  A
C306        C538   1.478   1_455  S
N307        C308   1.356       .  A
C308        C434   1.438       .  S
C308        N309   1.362   1_654  A
C310        C356   1.439       .  S
C310        N311   1.355       .  A
C310        N315   1.363   1_565  A
N311        C312   1.356   1_556  A
C312        N313   1.356   1_565  A
C312        C526   1.478       .  S
N313        C314   1.353       .  A
C314        C372   1.439       .  S
C314        N315   1.363   1_554  A
C316        C369   1.486       .  S
C316        N317   1.362       .  A
C316        N321   1.363   1_545  A
N317        C318   1.360   1_455  A
C318        C583   1.485       .  S
C318        N319   1.361   1_545  A
N319        C320   1.359       .  A
C320        C431   1.489       .  S
C320        N321   1.364   1_655  A
C322        C455   1.481       .  S
C322        N323   1.358       .  A
C322        N327   1.361       .  A
N323        C324   1.358       .  A
C324        C515   1.482       .  S
C324        N325   1.364       .  A
N325        C326   1.365       .  A
C326        C409   1.485       .  S
C326        N327   1.361       .  A
C328        C445   1.487       .  S
C328        N329   1.355       .  A
C328        N333   1.360       .  A
N329        C330   1.358       .  A
C330        C417   1.490       .  S
C330        N331   1.371       .  A
N331        C332   1.372       .  A
C332        C519   1.496       .  S
C332        N333   1.364       .  A
C334        C493   1.488       .  S
C334        N335   1.364       .  A
C334        N339   1.364   1_565  A
N335        C336   1.365   1_655  A
C336        C365   1.486       .  S
C336        N337   1.358   1_565  A
N337        C338   1.359       .  A
C338        C394   1.483       .  S
C338        N339   1.361   1_455  A
C340        C503   1.488       .  S
C340        N341   1.369       .  A
C340        N345   1.354       .  A
N341        C342   1.371       .  A
C342        C361   1.490       .  S
C342        N343   1.365       .  A
N343        C344   1.361       .  A
C344        C405   1.482       .  S
C344        N345   1.353       .  A
C346        C381   1.493       .  S
C346        N347   1.368       .  A
C346        N351   1.361       .  A
N347        C348   1.365       .  A
C348        C441   1.486       .  S
C348        N349   1.359       .  A
N349        C350   1.356       .  A
C350        C579   1.476       .  S
C350        N351   1.360       .  A
C352        C353   1.209       .  T
C354        C355   1.208       .  T
C356        C357   1.209       .  T
C358        C359   1.207       .  T
C360        C361   1.348       .  D
C360        H362   1.087       .  S
C361        H363   1.087       .  S
C364        C365   1.346       .  D
C364        H366   1.086       .  S
C365        H367   1.086       .  S
C368        C369   1.347       .  D
C368        H370   1.087       .  S
C369        H371   1.087       .  S
C372        C373   1.209       .  T
C374        C375   1.204       .  T
C376        C377   1.208       .  T
C378        C379   1.204       .  T
C380        C381   1.346       .  D
C380        H382   1.086       .  S
C381        H383   1.085       .  S
C384        C385   1.404       .  A
C384        C389   1.398       .  A
C384        H390   1.083       .  S
C385        C386   1.408       .  A
C386        C387   1.396       .  A
C386        H391   1.083       .  S
C387        C388   1.404       .  A
C387        H392   1.083       .  S
C388        C389   1.408       .  A
C389        H393   1.083       .  S
C394        C395   1.346       .  D
C394        H396   1.087       .  S
C395        H397   1.087       .  S
C398        C399   1.200       .  T
C400        C401   1.205       .  T
C402        C403   1.204       .  T
C404        C405   1.345       .  D
C404        H406   1.083       .  S
C405        H407   1.084       .  S
C408        C409   1.345       .  D
C408        H410   1.088       .  S
C409        H411   1.087       .  S
C412        C413   1.207       .  T
C414        C415   1.206       .  T
C416        C417   1.345       .  D
C416        H418   1.086       .  S
C417        H419   1.086       .  S
C420        C421   1.406       .  A
C420        C425   1.398       .  A
C420        H426   1.083       .  S
C421        C422   1.405       .  A
C422        C423   1.394       .  A
C422        H427   1.083       .  S
C423        C424   1.406       .  A
C423        H428   1.083       .  S
C424        C425   1.405       .  A
C425        H429   1.083       .  S
C430        C431   1.347       .  D
C430        H432   1.085       .  S
C431        H433   1.085       .  S
C434        C435   1.208       .  T
C436        C437   1.208       .  T
C438        C439   1.206       .  T
C440        C441   1.348       .  D
C440        H442   1.087       .  S
C441        H443   1.087       .  S
C444        C445   1.348       .  D
C444        H446   1.084       .  S
C445        H447   1.084       .  S
C448        C449   1.205   1_655  T
C450        C451   1.201       .  T
C452        C453   1.206       .  T
C454        C455   1.345       .  D
C454        H456   1.087       .  S
C455        H457   1.087       .  S
C458        C459   1.405   1_556  A
C458        C463   1.394       .  A
C458        H464   1.083       .  S
C459        C460   1.406       .  A
C460        C461   1.398       .  A
C460        H465   1.083       .  S
C461        C462   1.406       .  A
C461        H466   1.083       .  S
C462        C463   1.406   1_554  A
C463        H467   1.083       .  S
C468        C469   1.205       .  T
C470        C471   1.403       .  A
C470        C475   1.393       .  A
C470        H476   1.083       .  S
C471        C472   1.404       .  A
C472        C473   1.391       .  A
C472        H477   1.083       .  S
C473        C474   1.403       .  A
C473        H478   1.083       .  S
C474        C475   1.405       .  A
C475        H479   1.083       .  S
C480        C481   1.202       .  T
C482        C483   1.406       .  A
C482        C487   1.394       .  A
C482        H488   1.083       .  S
C483        C484   1.406       .  A
C484        C485   1.400       .  A
C484        H489   1.083       .  S
C485        C486   1.407       .  A
C485        H490   1.083       .  S
C486        C487   1.404       .  A
C487        H491   1.083       .  S
C492        C493   1.348       .  D
C492        H494   1.087       .  S
C493        H495   1.087       .  S
C496        C497   1.207       .  T
C498        C499   1.202       .  T
C500        C501   1.206       .  T
C502        C503   1.344       .  D
C502        H504   1.084       .  S
C503        H505   1.085       .  S
C506        C507   1.208       .  T
C508        C509   1.205       .  T
C510        C511   1.208       .  T
C512        C513   1.207       .  T
C514        C515   1.346       .  D
C514        H516   1.087       .  S
C515        H517   1.086       .  S
C518        C519   1.351       .  D
C518        H520   1.087       .  S
C519        H521   1.088       .  S
C522        C523   1.406   1_556  A
C522        C527   1.397       .  A
C522        H528   1.083       .  S
C523        C524   1.405       .  A
C524        C525   1.393   1_565  A
C524        H529   1.083   1_565  S
C525        C526   1.404   1_545  A
C525        H530   1.083       .  S
C526        C527   1.406   1_554  A
C527        H531   1.083       .  S
C532        C533   1.203       .  T
C534        C535   1.406   1_554  A
C534        C539   1.396       .  A
C534        H540   1.083       .  S
C535        C536   1.404   1_655  A
C536        C537   1.394       .  A
C536        H541   1.083       .  S
C537        C538   1.405   1_455  A
C537        H542   1.083       .  S
C538        C539   1.405   1_556  A
C539        H543   1.083       .  S
C544        C545   1.203       .  T
C546        C547   1.404       .  A
C546        C551   1.394       .  A
C546        H552   1.083       .  S
C547        C548   1.406       .  A
C548        C549   1.395       .  A
C548        H553   1.083       .  S
C549        C550   1.404       .  A
C549        H554   1.083       .  S
C550        C551   1.405       .  A
C551        H555   1.083       .  S
C556        C557   1.201       .  T
C558        C559   1.406       .  A
C558        C563   1.393       .  A
C558        H564   1.083       .  S
C559        C560   1.404       .  A
C560        C561   1.395       .  A
C560        H565   1.083       .  S
C561        C562   1.406       .  A
C561        H566   1.083       .  S
C562        C563   1.403       .  A
C563        H567   1.083       .  S
C568        C569   1.204       .  T
C570        C571   1.203       .  T
C572        C573   1.203       .  T
C574        C575   1.201       .  T
C576        C577   1.205       .  T
C578        C579   1.342       .  D
C578        H580   1.087       .  S
C579        H581   1.087       .  S
C582        C583   1.348       .  D
C582        H584   1.086       .  S
C583        H585   1.086       .  S
