geometry optimzed in LAMMPS
_audit_creation_date              2020-12-01 
_audit_creation_method            'lammps2cif' 
_symmetry_space_group_name_H-M    'P1' 
_symmetry_Int_Tables_number       1 
_symmetry_cell_setting            triclinic 
loop_ 
_symmetry_equiv_pos_as_xyz 
  x,y,z 
_cell_length_a                    25.24911231 
_cell_length_b                    24.353188461885285 
_cell_length_c                    25.813393569173172 
_cell_angle_alpha                 91.94474703163934 
_cell_angle_beta                  89.49532681144943 
_cell_angle_gamma                 89.66746047705647 
loop_ 
_atom_site_label 
_atom_site_type_symbol 
_atom_site_fract_x 
_atom_site_fract_y 
_atom_site_fract_z 
_atom_site_charge 
O1          O  0.47095461  0.52356593  0.86828233    -0.80500
O2          O  0.56438014  0.53286306  0.08290894    -0.80500
O3          O  0.46100066  0.58432062  0.03818466    -0.80500
O4          O  0.58898383  0.57619676  0.92423944    -0.80400
O5          O  0.47323783  0.51495654  0.08953563    -0.80600
O6          O  0.57402426  0.50893111  0.86810861    -0.80500
O7          O  0.58679962  0.58967463  0.02654447    -0.80500
O8          O  0.45706238  0.59082101  0.92686044    -0.80500
C9          C  0.45788884  0.57324186  0.87963956     1.09200
C10         C  0.58469182  0.57801586  0.07292640     1.09100
C11         C  0.45836718  0.56459478  0.08310348     1.09200
C12         C  0.58851949  0.55799587  0.87799988     1.09100
O13         O  0.56218768  0.40912533  0.92858229    -0.80500
O14         O  0.47292532  0.41555199  0.02311846    -0.80500
O15         O  0.40097969  0.48992195  0.92431420    -0.80500
O16         O  0.61754754  0.46561768  0.03728687    -0.80500
O17         O  0.55608138  0.42961503  0.09089316    -0.80500
O18         O  0.45548544  0.42126563  0.92281973    -0.80500
O19         O  0.62859534  0.46481777  0.93245246    -0.80400
O20         O  0.40983816  0.47832957  0.02738491    -0.80500
Co21       Co  0.51564973  0.46687384  0.90270457     1.51500
Co22       Co  0.52433114  0.47319103  0.04194496     1.51700
Co23       Co  0.43836977  0.53596324  0.97938511     1.51600
Co24       Co  0.59786132  0.52423368  0.98012664     1.51500
O25         O  0.51607783  0.50698235  0.97401922    -1.42400
C26         C  0.61053410  0.41769920  0.92085142     1.09200
C27         C  0.42595734  0.42955142  0.03589300     1.09200
C28         C  0.41133361  0.44063326  0.91053564     1.09200
C29         C  0.60397599  0.43265638  0.07436930     1.09200
O30         O  0.62619976  0.96833963  0.43908951    -0.80500
O31         O  0.60782225  0.09267299  0.51765042    -0.80500
O32         O  0.59655945  0.08015196  0.40286616    -0.80500
O33         O  0.55216846  0.97517120  0.59942546    -0.80400
O34         O  0.57294464  0.15901180  0.44081058    -0.80600
O35         O  0.61766932  0.96592915  0.54404951    -0.80500
O36         O  0.55428792  0.08513378  0.58516483    -0.80500
O37         O  0.57419860  0.97317601  0.37397131    -0.80500
C38         C  0.61714244  0.95607555  0.39239513     1.09200
C39         C  0.59912954  0.09864747  0.56592877     1.09100
C40         C  0.60142766  0.13293060  0.40771402     1.09200
C41         C  0.59902389  0.95890188  0.58878176     1.09100
O42         O  0.51986299  0.90478890  0.53384053    -0.80500
O43         O  0.48320827  0.10251132  0.41937848    -0.80500
O44         O  0.46974805  0.97854837  0.41232631    -0.80500
O45         O  0.44923918  0.07609473  0.53443597    -0.80500
O46         O  0.50523392  0.14066623  0.51982545    -0.80500
O47         O  0.52399888  0.90996759  0.43111412    -0.80500
O48         O  0.45442972  0.96435180  0.54490704    -0.80400
O49         O  0.50883087  0.05709635  0.34764024    -0.80500
Co50       Co  0.57168271  0.94177950  0.48678697     1.51500
Co51       Co  0.54796829  0.09336190  0.46949581     1.51700
Co52       Co  0.52981615  0.03006590  0.41244037     1.51600
Co53       Co  0.50322977  0.02544070  0.56111320     1.51500
O54         O  0.53606243  0.01565531  0.48891095    -1.42400
C55         C  0.47200760  0.91559046  0.54661571     1.09200
C56         C  0.48012338  0.09399272  0.36954208     1.09200
C57         C  0.47994940  0.92742531  0.41371859     1.09200
C58         C  0.46031837  0.12635386  0.53633888     1.09200
O59         O  0.97055277  0.41131227  0.42446770    -0.80500
O60         O  0.07217083  0.41495760  0.52007624    -0.80500
O61         O  0.08485414  0.44608390  0.39903822    -0.80500
O62         O  0.95433617  0.47845304  0.58998035    -0.80400
O63         O  0.15074805  0.44789836  0.45445570    -0.80600
O64         O  0.95057948  0.41336004  0.52938956    -0.80500
O65         O  0.06092093  0.47035994  0.58878134    -0.80500
O66         O  0.98804885  0.47088541  0.36615615    -0.80500
C67         C  0.97141830  0.42369461  0.37738179     1.09200
C68         C  0.07628371  0.42414475  0.56857594     1.09100
C69         C  0.13190230  0.43022798  0.41209186     1.09200
C70         C  0.94202720  0.42976898  0.57565724     1.09100
O71         O  0.89845729  0.51941155  0.52128837    -0.80500
O72         O  0.10854515  0.54756240  0.43533237    -0.80500
O73         O  0.98300689  0.57746698  0.41676932    -0.80500
O74         O  0.06835480  0.58143170  0.54763321    -0.80500
O75         O  0.12542624  0.51597012  0.53219747    -0.80500
O76         O  0.91709486  0.51808088  0.41849248    -0.80500
O77         O  0.95748403  0.58286014  0.54234209    -0.80400
O78         O  0.07038908  0.54513484  0.35806405    -0.80500
Co79       Co  0.93863572  0.46581425  0.47396760     1.51500
Co80       Co  0.08516979  0.47806583  0.47611812     1.51700
Co81       Co  0.03443029  0.51510551  0.41481166     1.51600
Co82       Co  0.01063091  0.52804785  0.56201852     1.51500
O83         O  0.01030606  0.49854392  0.48705205    -1.42400
C84         C  0.90960973  0.56774703  0.53841719     1.09200
C85         C  0.10699065  0.56271006  0.38766962     1.09200
C86         C  0.93519188  0.56498056  0.40694246     1.09200
C87         C  0.11533523  0.56348086  0.55048400     1.09200
C88         C  0.81747795  0.30465331  0.26039185     0.79900
N89         N  0.79552276  0.32741556  0.21785779    -0.78400
C90         C  0.74545858  0.31381828  0.20294714     0.82300
N91         N  0.71733602  0.27833944  0.23162219    -0.78400
C92         C  0.73819601  0.25596893  0.27406919     0.82400
N93         N  0.78798800  0.26940686  0.28833498    -0.80100
C94         C  0.77817705  0.68936589  0.29473210     0.79900
N95         N  0.75014795  0.66532831  0.25521164    -0.78400
C96         C  0.70712272  0.69063053  0.23493364     0.82300
N97         N  0.69158702  0.74043112  0.25506929    -0.78400
C98         C  0.71824764  0.76469019  0.29523401     0.82400
N99         N  0.76145395  0.73900537  0.31455609    -0.80100
C100        C  0.73698421  0.29440440  0.76959772     0.79900
N101        N  0.71598742  0.25022673  0.74394238    -0.78400
C102        C  0.73619947  0.23118754  0.69791398     0.82300
N103        N  0.77790624  0.25794285  0.67685202    -0.78400
C104        C  0.79948302  0.30262481  0.70147834     0.82400
N105        N  0.77858161  0.32066513  0.74783746    -0.80100
C106        C  0.35636358  0.75176149  0.32300501     0.79900
N107        N  0.37989781  0.72805772  0.28016931    -0.78400
C108        C  0.35864199  0.68253311  0.25710055     0.82300
N109        N  0.31321004  0.66176096  0.27631216    -0.78400
C110        C  0.28880822  0.68520949  0.31862428     0.82400
N111        N  0.31099846  0.73008064  0.34248523    -0.80100
C112        C  0.35073665  0.68772867  0.71705478     0.79900
N113        N  0.37229606  0.73141742  0.69374768    -0.78400
C114        C  0.34858563  0.75327455  0.65210225     0.82300
N115        N  0.30349761  0.73049451  0.63296063    -0.78400
C116        C  0.28193490  0.68611335  0.65556572     0.82400
N117        N  0.30633540  0.66426421  0.69707658    -0.80100
C118        C  0.30942461  0.32312071  0.74060961     0.79900
N119        N  0.26048878  0.33658254  0.72333014    -0.78400
C120        C  0.24229173  0.31591686  0.67730008     0.82300
N121        N  0.27465601  0.28235820  0.64789227    -0.78400
C122        C  0.32416360  0.26935610  0.66385342     0.82400
N123        N  0.34127819  0.28978871  0.71044435    -0.80100
C124        C  0.68357232  0.68570293  0.71621370     0.79900
N125        N  0.66999489  0.73921230  0.70974014    -0.78400
C126        C  0.69538420  0.76962111  0.67386880     0.82300
N127        N  0.73453884  0.74560292  0.64430991    -0.78400
C128        C  0.74853330  0.69247682  0.65075941     0.82400
N129        N  0.72291017  0.66280843  0.68647250    -0.80100
C130        C  0.33798839  0.23770753  0.26105661     0.79900
N131        N  0.35286497  0.26172183  0.21612204    -0.78400
C132        C  0.32555155  0.30589527  0.19849903     0.82300
N133        N  0.28323453  0.32572186  0.22652911    -0.78400
C134        C  0.26837200  0.30264086  0.27144813     0.82400
N135        N  0.29635290  0.25934031  0.28842222    -0.80100
C136        C  0.19073878  0.33501922  0.65560474    -0.00500
C137        C  0.17592137  0.31509872  0.60600143    -0.12400
C138        C  0.13470398  0.33941727  0.57875515     0.01800
C139        C  0.10762436  0.38583550  0.60058791    -0.00600
C140        C  0.11777105  0.40110776  0.65262516    -0.12300
C141        C  0.15825432  0.37595071  0.68037776     0.01600
H142        H  0.19812945  0.28174987  0.58703547     0.14600
H143        H  0.09588798  0.43499330  0.67111937     0.14600
C144        C  0.16579666  0.39440282  0.73356639     0.36300
C145        C  0.12304626  0.31691961  0.52766465     0.36200
N146        N  0.17134675  0.40906293  0.77629268    -0.44100
N147        N  0.11386610  0.29870983  0.48675118    -0.44100
C148        C  0.23762172  0.65631360  0.63017383    -0.00500
C149        C  0.24271102  0.59937798  0.62236717    -0.12400
C150        C  0.20400984  0.56879265  0.59620001     0.01800
C151        C  0.15786439  0.59513630  0.57760859    -0.00600
C152        C  0.15240873  0.65225236  0.58617116    -0.12300
C153        C  0.19199316  0.68293003  0.61174660     0.01600
H154        H  0.27779371  0.57868369  0.63591901     0.14600
H155        H  0.11743704  0.67306429  0.57259227     0.14600
C156        C  0.18398772  0.74126792  0.62009771     0.36300
C157        C  0.21322779  0.51026998  0.58995470     0.36200
N158        N  0.17724461  0.78800559  0.62686852    -0.44100
N159        N  0.22108601  0.46351624  0.58489886    -0.44100
C160        C  0.23867569  0.66051589  0.33738554    -0.00500
C161        C  0.20727914  0.63188331  0.30084098    -0.12400
C162        C  0.16307289  0.60177602  0.31576743     0.01800
C163        C  0.14879037  0.60000608  0.36871813    -0.00600
C164        C  0.17868470  0.63066075  0.40517089    -0.12300
C165        C  0.22313230  0.66077629  0.39016223     0.01600
H166        H  0.21820064  0.63166730  0.25995638     0.14600
H167        H  0.16819038  0.62991135  0.44612631     0.14600
C168        C  0.25316934  0.68875009  0.43028825     0.36300
C169        C  0.13554291  0.57041863  0.27597690     0.36200
N170        N  0.27654066  0.71098383  0.46308084    -0.44100
N171        N  0.11373860  0.54522520  0.24397367    -0.44100
C172        C  0.22926091  0.33045212  0.30685678    -0.00500
C173        C  0.24091736  0.33368666  0.35991602    -0.12400
C174        C  0.20930575  0.36438939  0.39503876     0.01800
C175        C  0.16371975  0.39223935  0.37750515    -0.00600
C176        C  0.15049429  0.38659488  0.32469374    -0.12300
C177        C  0.18293994  0.35643508  0.28939217     0.01600
H178        H  0.27638059  0.31388636  0.37393752     0.14600
H179        H  0.11562157  0.40724539  0.31048127     0.14600
C180        C  0.16740987  0.35215021  0.23574542     0.36300
C181        C  0.22589713  0.36702456  0.44849854     0.36200
N182        N  0.15476485  0.34857916  0.19278626    -0.44100
N183        N  0.23987808  0.36898799  0.49109881    -0.44100
C184        C  0.78926292  0.66564714  0.61744628    -0.00500
C185        C  0.77442448  0.62119682  0.58511703    -0.12400
C186        C  0.81228148  0.59058475  0.55647568     0.01800
C187        C  0.86673479  0.60413328  0.56042220    -0.00600
C188        C  0.88091958  0.65051809  0.59131093    -0.12300
C189        C  0.84282084  0.68092485  0.61993820     0.01600
H190        H  0.73301243  0.60968332  0.58306426     0.14600
H191        H  0.92223991  0.66164853  0.59532587     0.14600
C192        C  0.86010766  0.72471554  0.65479870     0.36300
C193        C  0.79365165  0.54487144  0.52464830     0.36200
N194        N  0.87406306  0.75942942  0.68311630    -0.44100
N195        N  0.77849801  0.50816059  0.49938841    -0.44100
C196        C  0.84075494  0.33490304  0.67429002    -0.00500
C197        C  0.87325200  0.30799321  0.63661909    -0.12400
C198        C  0.90809808  0.33736080  0.60531287     0.01800
C199        C  0.91146315  0.39512370  0.61162985    -0.00600
C200        C  0.88087403  0.42166543  0.65085256    -0.12300
C201        C  0.84542350  0.39260965  0.68150690     0.01600
H202        H  0.87058435  0.26380513  0.63069566     0.14600
H203        H  0.88234559  0.46603383  0.65581658     0.14600
C204        C  0.81147387  0.42428944  0.71672279     0.36300
C205        C  0.93950954  0.30711429  0.56685696     0.36200
N206        N  0.78413528  0.45004297  0.74450316    -0.44100
N207        N  0.96459700  0.28295021  0.53592981    -0.44100
C208        C  0.86869864  0.32555829  0.28195354    -0.00500
C209        C  0.89215249  0.37242078  0.26115309    -0.12400
C210        C  0.93073693  0.40247915  0.28869102     0.01800
C211        C  0.94583457  0.38607950  0.33851001    -0.00600
C212        C  0.92878981  0.33470901  0.35505673    -0.12300
C213        C  0.89124803  0.30417114  0.32723919     0.01600
H214        H  0.87863903  0.38731893  0.22470897     0.14600
H215        H  0.94250662  0.31953485  0.39164112     0.14600
C216        C  0.87578651  0.25207270  0.34767098     0.36300
C217        C  0.95249174  0.45063620  0.26549530     0.36200
N218        N  0.86355712  0.21037796  0.36422146    -0.44100
N219        N  0.97024025  0.48890035  0.24656299    -0.44100
C220        C  0.82376287  0.66001977  0.31945117    -0.00500
C221        C  0.84740759  0.68334378  0.36452763    -0.12400
C222        C  0.88600407  0.65469914  0.39227646     0.01800
C223        C  0.90099437  0.60107111  0.37591544    -0.00600
C224        C  0.87974091  0.57884638  0.32980827    -0.12300
C225        C  0.84289651  0.60804308  0.30090375     0.01600
H226        H  0.83512998  0.72368608  0.37899062     0.14600
H227        H  0.89195751  0.53810295  0.31631991     0.14600
C228        C  0.82670671  0.58372841  0.25187435     0.36300
C229        C  0.90783274  0.68018925  0.43856363     0.36200
N230        N  0.81403204  0.56500952  0.21213657    -0.44100
N231        N  0.92546998  0.70087717  0.47550932    -0.44100
C232        C  0.63975387  0.12555130  0.59989671    -0.00500
C233        C  0.63208785  0.12656122  0.65396217    -0.12400
C234        C  0.66535422  0.15697653  0.68726237     0.01800
C235        C  0.70693462  0.18868993  0.66657090    -0.00600
C236        C  0.71719446  0.18390313  0.61304523    -0.12300
C237        C  0.68467899  0.15273100  0.57989780     0.01600
H238        H  0.59937046  0.10423580  0.67044336     0.14600
H239        H  0.74956923  0.20649654  0.59628544     0.14600
C240        C  0.69826456  0.15153988  0.52547311     0.36300
C241        C  0.65562895  0.15439171  0.74235432     0.36200
N242        N  0.71022772  0.15099148  0.48210994    -0.44100
N243        N  0.64793670  0.15204939  0.78649333    -0.44100
C244        C  0.42422814  0.16628015  0.56372401    -0.00500
C245        C  0.44638708  0.20964357  0.59335186    -0.12400
C246        C  0.41483461  0.24376152  0.62598068     0.01800
C247        C  0.35953982  0.23504989  0.62927858    -0.00600
C248        C  0.33709443  0.19343118  0.59754517    -0.12300
C249        C  0.36873610  0.15909194  0.56519713     0.01600
H250        H  0.48893347  0.21588165  0.59236813     0.14600
H251        H  0.29458485  0.18696122  0.59867510     0.14600
C252        C  0.34312625  0.11738211  0.53333641     0.36300
C253        C  0.44030930  0.28813004  0.65450145     0.36200
N254        N  0.32258488  0.08408409  0.50768341    -0.44100
N255        N  0.46086745  0.32372300  0.67717891    -0.44100
C256        C  0.44270330  0.12609926  0.33848320    -0.00500
C257        C  0.39045574  0.13311108  0.35592238    -0.12400
C258        C  0.35445281  0.16544694  0.32911294     0.01800
C259        C  0.37130768  0.19411374  0.28473582    -0.00600
C260        C  0.42322716  0.18468450  0.26608383    -0.12300
C261        C  0.45864697  0.15087707  0.29219617     0.01600
H262        H  0.37754487  0.11280940  0.39072285     0.14600
H263        H  0.43716432  0.20550573  0.23201938     0.14600
C264        C  0.51218151  0.14513225  0.27246861     0.36300
C265        C  0.30047611  0.16741666  0.34817454     0.36200
N266        N  0.55507272  0.14059891  0.25665122    -0.44100
N267        N  0.25727487  0.16855604  0.36357355    -0.44100
C268        C  0.63873704  0.16331873  0.37475396    -0.00500
C269        C  0.62356536  0.21610985  0.36016466    -0.12400
C270        C  0.65518069  0.24632891  0.32700456     0.01800
C271        C  0.70397309  0.22442595  0.30868742    -0.00600
C272        C  0.72011398  0.17230982  0.32415430    -0.12300
C273        C  0.68751236  0.14117702  0.35618023     0.01600
H274        H  0.58608092  0.23346159  0.37377136     0.14600
H275        H  0.75776689  0.15554336  0.31042138     0.14600
C276        C  0.70578106  0.08750994  0.37033584     0.36300
C277        C  0.63702116  0.30025201  0.31317663     0.36200
N278        N  0.72080028  0.04460477  0.38166331    -0.44100
N279        N  0.62248856  0.34335527  0.30188759    -0.44100
C280        C  0.43845539  0.87184275  0.56899076    -0.00500
C281        C  0.38746596  0.88563090  0.58832874    -0.12400
C282        C  0.35700053  0.84757701  0.61510528     0.01800
C283        C  0.37721032  0.79453594  0.62253814    -0.00600
C284        C  0.42707751  0.78000766  0.60229232    -0.12300
C285        C  0.45776207  0.81764303  0.57577542     0.01600
H286        H  0.37191290  0.92680937  0.58417722     0.14600
H287        H  0.44244840  0.73892068  0.60781282     0.14600
C288        C  0.50936397  0.79910246  0.55766655     0.36300
C289        C  0.30683588  0.86490747  0.63757113     0.36200
N290        N  0.55074496  0.78399494  0.54354022    -0.44100
N291        N  0.26690468  0.87902554  0.65606940    -0.44100
C292        C  0.62761237  0.92138047  0.62354383    -0.00500
C293        C  0.68099203  0.90898738  0.61238800    -0.12400
C294        C  0.70557233  0.86246440  0.63198375     0.01800
C295        C  0.67619015  0.82611750  0.66269522    -0.00600
C296        C  0.62495140  0.84227985  0.67904110    -0.12300
C297        C  0.60076097  0.88959737  0.66042103     0.01600
H298        H  0.70297824  0.93419576  0.58589323     0.14600
H299        H  0.60225885  0.81631027  0.70426180     0.14600
C300        C  0.54731392  0.90208747  0.67766993     0.36300
C301        C  0.76069899  0.85303544  0.61901127     0.36200
N302        N  0.50463353  0.91208873  0.69192035    -0.44100
N303        N  0.80494851  0.84584806  0.60868422    -0.44100
C304        C  0.69798022  0.81707103  0.31959538    -0.00500
C305        C  0.66950327  0.85362233  0.28907910    -0.12400
C306        C  0.64519552  0.90095383  0.31104800     0.01800
C307        C  0.64969654  0.91306605  0.36473825    -0.00600
C308        C  0.68038018  0.87794217  0.39471321    -0.12300
C309        C  0.70344575  0.82995891  0.37317355     0.01600
H310        H  0.66512096  0.84454027  0.24784743     0.14600
H311        H  0.68350179  0.88586115  0.43626027     0.14600
C312        C  0.72778987  0.79259539  0.40834307     0.36300
C313        C  0.61500027  0.93555148  0.27772142     0.36200
N314        N  0.74652110  0.76281697  0.43711485    -0.44100
N315        N  0.59060397  0.96317899  0.25107267    -0.44100
C316        C  0.38206610  0.79906187  0.34937636    -0.00500
C317        C  0.38834874  0.84785409  0.32263693    -0.12400
C318        C  0.41779649  0.89166113  0.34391856     0.01800
C319        C  0.44225289  0.88639416  0.39253632    -0.00600
C320        C  0.43509439  0.83783735  0.41950235    -0.12300
C321        C  0.40513382  0.79447745  0.39857245     0.01600
H322        H  0.37129759  0.85115587  0.28444212     0.14600
H323        H  0.45428567  0.83311992  0.45647553     0.14600
C324        C  0.40206309  0.74434899  0.42670694     0.36300
C325        C  0.42531544  0.93965704  0.31340256     0.36200
N326        N  0.40024972  0.70428424  0.44949453    -0.44100
N327        N  0.43117952  0.97786342  0.28855605    -0.44100
C328        C  0.64489797  0.39938675  0.09920281    -0.00500
C329        C  0.69249133  0.42398624  0.11479343    -0.12400
C330        C  0.72865339  0.39581093  0.14542735     0.01800
C331        C  0.71727454  0.34172974  0.16061233    -0.00600
C332        C  0.67197510  0.31575114  0.14024307    -0.12300
C333        C  0.63576668  0.34404673  0.11040568     0.01600
H334        H  0.70007885  0.46635287  0.10545578     0.14600
H335        H  0.66328616  0.27367886  0.14971350     0.14600
C336        C  0.58917835  0.31535109  0.09240018     0.36300
C337        C  0.77520614  0.42483418  0.16252380     0.36200
N338        N  0.55198999  0.29198677  0.07819531    -0.44100
N339        N  0.81254294  0.44870309  0.17545466    -0.44100
C340        C  0.67487846  0.66249555  0.19382963    -0.00500
C341        C  0.65656712  0.69199099  0.15144422    -0.12400
C342        C  0.62626615  0.66638360  0.11187636     0.01800
C343        C  0.61227690  0.61041197  0.11499947    -0.00600
C344        C  0.62939555  0.58174772  0.15842003    -0.12300
C345        C  0.66050732  0.60680458  0.19708754     0.01600
H346        H  0.66681941  0.73501945  0.14872207     0.14600
H347        H  0.61965403  0.53864863  0.16173209     0.14600
C348        C  0.67578784  0.57457866  0.24054434     0.36300
C349        C  0.60982273  0.69866544  0.06900113     0.36200
N350        N  0.68800651  0.54877935  0.27537810    -0.44100
N351        N  0.59681466  0.72493751  0.03478157    -0.44100
C352        C  0.38612526  0.65326157  0.21348174    -0.00500
C353        C  0.40267042  0.68227247  0.17027622    -0.12400
C354        C  0.42645620  0.65489389  0.12721494     0.01800
C355        C  0.43542496  0.59731618  0.12774380    -0.00600
C356        C  0.41971880  0.56893493  0.17179500    -0.12300
C357        C  0.39494779  0.59603718  0.21400573     0.01600
H358        H  0.39567769  0.72628368  0.16961058     0.14600
H359        H  0.42574981  0.52482768  0.17308439     0.14600
C360        C  0.37984801  0.56406340  0.25784812     0.36300
C361        C  0.44053475  0.68709975  0.08325767     0.36200
N362        N  0.36768135  0.53838571  0.29288823    -0.44100
N363        N  0.45135778  0.71314095  0.04804450    -0.44100
C364        C  0.39385939  0.39466867  0.07076483    -0.00500
C365        C  0.36009257  0.42151045  0.10715478    -0.12400
C366        C  0.33639720  0.39354784  0.14772089     0.01800
C367        C  0.34561201  0.33637939  0.15274785    -0.00600
C368        C  0.37705504  0.30882606  0.11452141    -0.12300
C369        C  0.40071905  0.33723166  0.07369639     0.01600
H370        H  0.35439826  0.46571284  0.10587049     0.14600
H371        H  0.38368650  0.26486269  0.11676510     0.18400
C372        C  0.43083906  0.30643008  0.03472198     0.36300
C373        C  0.30604433  0.42621311  0.18533158     0.36200
N374        N  0.45455007  0.28176499  0.00310032    -0.44100
N375        N  0.28188842  0.45270315  0.21530716    -0.44100
C376        C  0.60908806  0.59196278  0.83567145    -0.00500
C377        C  0.62911542  0.56518520  0.79058557    -0.12400
C378        C  0.65248030  0.59460293  0.75088202     0.01800
C379        C  0.65612248  0.65262063  0.75562023    -0.00600
C380        C  0.63404946  0.67957881  0.79977345    -0.12300
C381        C  0.61076266  0.65000884  0.83956618     0.01600
H382        H  0.62757815  0.52071731  0.78664564     0.14600
H383        H  0.63586782  0.72400555  0.80382663     0.14600
C384        C  0.58810127  0.68058919  0.88331445     0.36300
C385        C  0.67148542  0.56370054  0.70561826     0.36200
N386        N  0.56979229  0.70524755  0.91821539    -0.44100
N387        N  0.68669116  0.53863279  0.66954129    -0.44100
C388        C  0.70786830  0.31924897  0.81521877    -0.00500
C389        C  0.65333330  0.30883860  0.81962701    -0.12400
C390        C  0.62127151  0.33772202  0.85566719     0.01800
C391        C  0.64379196  0.37776414  0.88975300    -0.00600
C392        C  0.69905011  0.38520201  0.88811375    -0.12300
C393        C  0.73107366  0.35660241  0.85138704     0.01600
H394        H  0.63444943  0.28024192  0.79230824     0.14600
H395        H  0.71721528  0.41529432  0.91438276     0.14600
C396        C  0.78732820  0.36693680  0.85155807     0.36300
C397        C  0.56487893  0.32850730  0.85289633     0.36200
N398        N  0.83239677  0.37535142  0.85184378    -0.44100
N399        N  0.51976488  0.32109348  0.84991262    -0.44100
C400        C  0.33009456  0.35025611  0.78871472    -0.00500
C401        C  0.31813151  0.40599760  0.79863560    -0.12400
C402        C  0.34147877  0.43573058  0.83978386     0.01800
C403        C  0.37744932  0.40937062  0.87290005    -0.00600
C404        C  0.38656922  0.35261152  0.86489229    -0.12300
C405        C  0.36358194  0.32312397  0.82326904     0.01600
H406        H  0.29235786  0.42735131  0.77242260     0.14600
H407        H  0.41317137  0.33136663  0.89038101     0.14600
C408        C  0.37467062  0.26502550  0.81726453     0.36300
C409        C  0.33002888  0.49387496  0.84442711     0.36200
N410        N  0.38349480  0.21841585  0.81273578    -0.44100
N411        N  0.32054074  0.54042348  0.84763975    -0.44100
C412        C  0.43656904  0.60705157  0.83700632    -0.00500
C413        C  0.40618368  0.65452988  0.84924190    -0.12400
C414        C  0.37809417  0.68167440  0.81069646     0.01800
C415        C  0.37981502  0.66131294  0.75897702    -0.00600
C416        C  0.41144154  0.61556938  0.74613642    -0.12300
C417        C  0.44008610  0.58872447  0.78403960     0.01600
H418        H  0.40265359  0.66937880  0.88921145     0.14600
H419        H  0.41372197  0.60066413  0.70604472     0.14600
C420        C  0.47214840  0.54215497  0.76669940     0.36300
C421        C  0.34624040  0.72922127  0.82515633     0.36200
N422        N  0.49754422  0.50477180  0.75254868    -0.44100
N423        N  0.32052023  0.76732196  0.83645188    -0.44100
loop_ 
_geom_bond_atom_site_label_1 
_geom_bond_atom_site_label_2 
_geom_bond_distance 
_geom_bond_site_symmetry_2 
_ccdc_geom_bond_type 
O1            C9   1.276       .  A
O1          Co21   2.013       .  S
O2           C10   1.250       .  A
O2          Co22   2.045       .  S
O3           C11   1.271       .  A
O3          Co23   1.980   1_554  S
O4           C12   1.259       .  A
O4          Co24   1.964       .  S
O5           C11   1.280       .  A
O5          Co22   2.020       .  S
O6           C12   1.270       .  A
O6          Co21   2.019       .  S
O7           C10   1.241       .  A
O7          Co24   1.978   1_554  S
O8            C9   1.278       .  A
O8          Co23   1.991       .  S
C9          C412   1.499       .  S
C10         C343   1.500       .  S
C11         C355   1.490       .  S
C12         C376   1.485       .  S
O13          C26   1.255       .  A
O13         Co21   1.966       .  S
O14          C27   1.270       .  A
O14         Co22   1.969       .  S
O15          C28   1.265       .  A
O15         Co23   2.024       .  S
O16          C29   1.314       .  A
O16         Co24   2.147   1_554  S
O17          C29   1.282       .  A
O17         Co22   1.861       .  S
O18          C28   1.255       .  A
O18         Co21   1.964       .  S
O19          C26   1.265       .  A
O19         Co24   2.015       .  S
O20          C27   1.280       .  A
O20         Co23   2.034   1_554  S
Co21         O25   2.055       .  S
Co22         O25   1.974   1_554  S
Co23         O25   2.083       .  S
Co24         O25   2.116       .  S
C26         C391   1.490       .  S
C27         C364   1.495       .  S
C28         C403   1.492       .  S
C29         C328   1.474       .  S
O30          C38   1.255       .  A
O30         Co50   1.966       .  S
O31          C39   1.267       .  A
O31         Co51   1.966       .  S
O32          C40   1.294       .  A
O32         Co52   2.104       .  S
O33          C41   1.270       .  A
O33         Co53   2.022   1_565  S
O34          C40   1.264       .  A
O34         Co51   1.894       .  S
O35          C41   1.261       .  A
O35         Co50   1.964       .  S
O36          C39   1.282       .  A
O36         Co53   2.034       .  S
O37          C38   1.262       .  A
O37         Co52   2.008   1_565  S
C38         C307   1.487       .  S
C39         C232   1.495       .  S
C40         C268   1.482       .  S
C41         C292   1.490       .  S
O42          C55   1.273       .  A
O42         Co50   2.015       .  S
O43          C56   1.299       .  A
O43         Co51   2.109       .  S
O44          C57   1.272       .  A
O44         Co52   1.974   1_565  S
O45          C58   1.257       .  A
O45         Co53   1.977       .  S
O46          C58   1.263       .  A
O46         Co51   2.010       .  S
O47          C57   1.279       .  A
O47         Co50   2.020       .  S
O48          C55   1.268       .  A
O48         Co53   1.973   1_565  S
O49          C56   1.266       .  A
O49         Co52   1.897       .  S
Co50         O54   2.006   1_565  S
Co51         O54   1.998       .  S
Co52         O54   2.024       .  S
Co53         O54   2.039       .  S
C55         C280   1.493       .  S
C56         C256   1.481       .  S
C57         C319   1.479       .  S
C58         C244   1.486       .  S
O59          C67   1.262       .  A
O59         Co79   1.974       .  S
O60          C68   1.270       .  A
O60         Co80   1.968       .  S
O61          C69   1.298       .  A
O61         Co81   2.129       .  S
O62          C70   1.271       .  A
O62         Co82   2.015   1_655  S
O63          C69   1.260       .  A
O63         Co80   1.880       .  S
O64          C70   1.263       .  A
O64         Co79   1.974       .  S
O65          C68   1.281       .  A
O65         Co82   2.031       .  S
O66          C67   1.268       .  A
O66         Co81   2.014   1_655  S
C67         C211   1.490       .  S
C68         C139   1.495       .  S
C69         C175   1.490       .  S
C70         C199   1.489       .  S
O71          C84   1.277       .  A
O71         Co79   2.020       .  S
O72          C85   1.297       .  A
O72         Co80   2.108       .  S
O73          C86   1.272       .  A
O73         Co81   1.991   1_655  S
O74          C87   1.265       .  A
O74         Co82   1.999       .  S
O75          C87   1.259       .  A
O75         Co80   1.982       .  S
O76          C86   1.276       .  A
O76         Co79   2.024       .  S
O77          C84   1.270       .  A
O77         Co82   1.969   1_655  S
O78          C85   1.271       .  A
O78         Co81   1.887       .  S
Co79         O83   2.008   1_655  S
Co80         O83   1.968       .  S
Co81         O83   2.011       .  S
Co82         O83   2.041       .  S
C84         C187   1.491       .  S
C85         C163   1.487       .  S
C86         C223   1.487       .  S
C87         C151   1.491       .  S
C88         C208   1.498       .  S
C88          N89   1.367       .  A
C88          N93   1.361       .  A
N89          C90   1.364       .  A
C90         C331   1.490       .  S
C90          N91   1.356       .  A
N91          C92   1.350       .  A
C92         C271   1.475       .  S
C92          N93   1.352       .  A
C94         C220   1.509       .  S
C94          N95   1.364       .  A
C94          N99   1.360       .  A
N95          C96   1.363       .  A
C96         C340   1.493       .  S
C96          N97   1.358       .  A
N97          C98   1.361       .  A
C98         C304   1.489       .  S
C98          N99   1.361       .  A
C100        C388   1.492       .  S
C100        N101   1.357       .  A
C100        N105   1.360       .  A
N101        C102   1.355       .  A
C102        C235   1.495       .  S
C102        N103   1.361       .  A
N103        C104   1.361       .  A
C104        C196   1.493       .  S
C104        N105   1.362       .  A
C106        C316   1.475       .  S
C106        N107   1.360       .  A
C106        N111   1.363       .  A
N107        C108   1.356       .  A
C108        C352   1.478       .  S
C108        N109   1.353       .  A
N109        C110   1.357       .  A
C110        C160   1.489       .  S
C110        N111   1.362       .  A
C112        C415   1.476       .  S
C112        N113   1.355       .  A
C112        N117   1.359       .  A
N113        C114   1.358       .  A
C114        C283   1.471       .  S
C114        N115   1.359       .  A
N115        C116   1.360       .  A
C116        C148   1.483       .  S
C116        N117   1.363       .  A
C118        C400   1.487       .  S
C118        N119   1.359       .  A
C118        N123   1.360       .  A
N119        C120   1.359       .  A
C120        C136   1.499       .  S
C120        N121   1.361       .  A
N121        C122   1.359       .  A
C122        C247   1.490       .  S
C122        N123   1.361       .  A
C124        C379   1.488       .  S
C124        N125   1.362       .  A
C124        N129   1.356       .  A
N125        C126   1.363       .  A
C126        C295   1.494       .  S
C126        N127   1.361       .  A
N127        C128   1.355       .  A
C128        C184   1.471       .  S
C128        N129   1.353       .  A
C130        C259   1.500       .  S
C130        N131   1.367       .  A
C130        N135   1.355       .  A
N131        C132   1.367       .  A
C132        C367   1.502       .  S
C132        N133   1.362       .  A
N133        C134   1.357       .  A
C134        C172   1.484       .  S
C134        N135   1.353       .  A
C136        C137   1.408       .  A
C136        C141   1.419       .  A
C137        C138   1.401       .  A
C137        H142   1.085       .  S
C138        C139   1.416       .  A
C138        C145   1.444       .  S
C139        C140   1.408       .  A
C140        C141   1.403       .  A
C140        H143   1.085       .  S
C141        C144   1.445       .  S
C144        N146   1.158       .  T
C145        N147   1.157       .  T
C148        C149   1.399       .  A
C148        C153   1.413       .  A
C149        C150   1.397       .  A
C149        H154   1.083       .  S
C150        C151   1.422       .  A
C150        C157   1.446       .  S
C151        C152   1.407       .  A
C152        C153   1.407       .  A
C152        H155   1.082       .  S
C153        C156   1.443       .  S
C156        N158   1.157       .  T
C157        N159   1.157       .  T
C160        C161   1.407       .  A
C160        C165   1.414       .  A
C161        C162   1.397       .  A
C161        H166   1.088       .  S
C162        C163   1.413       .  A
C162        C169   1.445       .  S
C163        C164   1.408       .  A
C164        C165   1.403       .  A
C164        H167   1.088       .  S
C165        C168   1.444       .  S
C168        N170   1.157       .  T
C169        N171   1.157       .  T
C172        C173   1.403       .  A
C172        C177   1.411       .  A
C173        C174   1.397       .  A
C173        H178   1.085       .  S
C174        C175   1.418       .  A
C174        C181   1.445       .  S
C175        C176   1.409       .  A
C176        C177   1.405       .  A
C176        H179   1.084       .  S
C177        C180   1.443       .  S
C180        N182   1.157       .  T
C181        N183   1.157       .  T
C184        C185   1.399       .  A
C184        C189   1.406       .  A
C185        C186   1.399       .  A
C185        H190   1.085       .  S
C186        C187   1.420       .  A
C186        C193   1.444       .  S
C187        C188   1.410       .  A
C188        C189   1.401       .  A
C188        H191   1.084       .  S
C189        C192   1.444       .  S
C192        N194   1.157       .  T
C193        N195   1.157       .  T
C196        C197   1.409       .  A
C196        C201   1.417       .  A
C197        C198   1.405       .  A
C197        H202   1.084       .  S
C198        C199   1.414       .  A
C198        C205   1.445       .  S
C199        C200   1.406       .  A
C200        C201   1.400       .  A
C200        H203   1.085       .  S
C201        C204   1.445       .  S
C204        N206   1.157       .  T
C205        N207   1.157       .  T
C208        C209   1.409       .  A
C208        C213   1.418       .  A
C209        C210   1.405       .  A
C209        H214   1.077       .  S
C210        C211   1.414       .  A
C210        C217   1.444       .  S
C211        C212   1.404       .  A
C212        C213   1.397       .  A
C212        H215   1.085       .  S
C213        C216   1.445       .  S
C216        N218   1.157       .  T
C217        N219   1.158       .  T
C220        C221   1.416       .  A
C220        C225   1.419       .  A
C221        C222   1.410       .  A
C221        H226   1.082       .  S
C222        C223   1.408       .  A
C222        C229   1.443       .  S
C223        C224   1.403       .  A
C224        C225   1.403       .  A
C224        H227   1.083       .  S
C225        C228   1.442       .  S
C228        N230   1.157       .  T
C229        N231   1.157       .  T
C232        C233   1.407       .  A
C232        C237   1.419       .  A
C233        C234   1.403       .  A
C233        H238   1.083       .  S
C234        C235   1.418       .  A
C234        C241   1.445       .  S
C235        C236   1.404       .  A
C236        C237   1.399       .  A
C236        H239   1.083       .  S
C237        C240   1.443       .  S
C240        N242   1.156       .  T
C241        N243   1.157       .  T
C244        C245   1.405       .  A
C244        C249   1.413       .  A
C245        C246   1.403       .  A
C245        H250   1.086       .  S
C246        C247   1.416       .  A
C246        C253   1.444       .  S
C247        C248   1.406       .  A
C248        C249   1.403       .  A
C248        H251   1.086       .  S
C249        C252   1.445       .  S
C252        N254   1.157       .  T
C253        N255   1.157       .  T
C256        C257   1.398       .  A
C256        C261   1.413       .  A
C257        C258   1.402       .  A
C257        H262   1.088       .  S
C258        C259   1.425       .  A
C258        C265   1.445       .  S
C259        C260   1.407       .  A
C260        C261   1.404       .  A
C260        H263   1.087       .  S
C261        C264   1.445       .  S
C264        N266   1.157       .  T
C265        N267   1.158       .  T
C268        C269   1.404       .  A
C268        C273   1.415       .  A
C269        C270   1.396       .  A
C269        H274   1.085       .  S
C270        C271   1.411       .  A
C270        C277   1.446       .  S
C271        C272   1.403       .  A
C272        C273   1.405       .  A
C272        H275   1.084       .  S
C273        C276   1.443       .  S
C276        N278   1.157       .  T
C277        N279   1.157       .  T
C280        C281   1.411       .  A
C280        C285   1.421       .  A
C281        C282   1.404       .  A
C281        H286   1.084       .  S
C282        C283   1.406       .  A
C282        C289   1.443       .  S
C283        C284   1.398       .  A
C284        C285   1.397       .  A
C284        H287   1.085       .  S
C285        C288   1.445       .  S
C288        N290   1.157       .  T
C289        N291   1.157       .  T
C292        C293   1.405       .  A
C292        C297   1.418       .  A
C293        C294   1.400       .  A
C293        H298   1.086       .  S
C294        C295   1.417       .  A
C294        C301   1.444       .  S
C295        C296   1.407       .  A
C296        C297   1.402       .  A
C296        H299   1.085       .  S
C297        C300   1.445       .  S
C300        N302   1.158       .  T
C301        N303   1.157       .  T
C304        C305   1.407       .  A
C304        C309   1.416       .  A
C305        C306   1.403       .  A
C305        H310   1.086       .  S
C306        C307   1.413       .  A
C306        C313   1.444       .  S
C307        C308   1.407       .  A
C308        C309   1.399       .  A
C308        H311   1.087       .  S
C309        C312   1.445       .  S
C312        N314   1.158       .  T
C313        N315   1.157       .  T
C316        C317   1.403       .  A
C316        C321   1.409       .  A
C317        C318   1.403       .  A
C317        H322   1.085       .  S
C318        C319   1.413       .  A
C318        C325   1.444       .  S
C319        C320   1.404       .  A
C320        C321   1.399       .  A
C320        H323   1.083       .  S
C321        C324   1.444       .  S
C324        N326   1.157       .  T
C325        N327   1.157       .  T
C328        C329   1.402       .  A
C328        C333   1.408       .  A
C329        C330   1.404       .  A
C329        H334   1.085       .  S
C330        C331   1.417       .  A
C330        C337   1.440       .  S
C331        C332   1.408       .  A
C332        C333   1.395       .  A
C332        H335   1.085       .  S
C333        C336   1.444       .  S
C336        N338   1.157       .  T
C337        N339   1.156       .  T
C340        C341   1.409       .  A
C340        C345   1.411       .  A
C341        C342   1.412       .  A
C341        H346   1.085       .  S
C342        C343   1.415       .  A
C342        C349   1.442       .  S
C343        C344   1.410       .  A
C344        C345   1.401       .  A
C344        H347   1.085       .  S
C345        C348   1.445       .  S
C348        N350   1.157       .  T
C349        N351   1.157       .  T
C352        C353   1.402       .  A
C352        C357   1.411       .  A
C353        C354   1.405       .  A
C353        H358   1.086       .  S
C354        C355   1.420       .  A
C354        C361   1.444       .  S
C355        C356   1.406       .  A
C356        C357   1.396       .  A
C356        H359   1.086       .  S
C357        C360   1.445       .  S
C360        N362   1.157       .  T
C361        N363   1.158       .  T
C364        C365   1.405       .  A
C364        C369   1.413       .  A
C365        C366   1.400       .  A
C365        H370   1.087       .  S
C366        C367   1.421       .  A
C366        C373   1.446       .  S
C367        C368   1.410       .  A
C368        C369   1.410       .  A
C368        H371   1.086       .  S
C369        C372   1.443       .  S
C372        N374   1.157       .  T
C373        N375   1.158       .  T
C376        C377   1.403       .  A
C376        C381   1.415       .  A
C377        C378   1.398       .  A
C377        H382   1.085       .  S
C378        C379   1.418       .  A
C378        C385   1.445       .  S
C379        C380   1.405       .  A
C380        C381   1.401       .  A
C380        H383   1.085       .  S
C381        C384   1.444       .  S
C384        N386   1.157       .  T
C385        N387   1.157       .  T
C388        C389   1.406       .  A
C388        C393   1.414       .  A
C389        C390   1.397       .  A
C389        H394   1.089       .  S
C390        C391   1.416       .  A
C390        C397   1.445       .  S
C391        C392   1.408       .  A
C392        C393   1.405       .  A
C392        H395   1.088       .  S
C393        C396   1.444       .  S
C396        N398   1.157       .  T
C397        N399   1.157       .  T
C400        C401   1.404       .  A
C400        C405   1.412       .  A
C401        C402   1.401       .  A
C401        H406   1.086       .  S
C402        C403   1.418       .  A
C402        C409   1.444       .  S
C403        C404   1.408       .  A
C404        C405   1.404       .  A
C404        H407   1.086       .  S
C405        C408   1.444       .  S
C408        N410   1.157       .  T
C409        N411   1.157       .  T
C412        C413   1.409       .  A
C412        C417   1.426       .  A
C413        C414   1.408       .  A
C413        H418   1.084       .  S
C414        C415   1.409       .  A
C414        C421   1.443       .  S
C415        C416   1.396       .  A
C416        C417   1.399       .  A
C416        H419   1.086       .  S
C417        C420   1.446       .  S
C420        N422   1.158       .  T
C421        N423   1.157       .  T
