geometry optimzed in LAMMPS
_audit_creation_date              2020-12-01 
_audit_creation_method            'lammps2cif' 
_symmetry_space_group_name_H-M    'P1' 
_symmetry_Int_Tables_number       1 
_symmetry_cell_setting            triclinic 
loop_ 
_symmetry_equiv_pos_as_xyz 
  x,y,z 
_cell_length_a                    30.31493735 
_cell_length_b                    55.0949413310862 
_cell_length_c                    47.88834153447928 
_cell_angle_alpha                 90.00700963455394 
_cell_angle_beta                  89.93660200352599 
_cell_angle_gamma                 89.99964022018354 
loop_ 
_atom_site_label 
_atom_site_type_symbol 
_atom_site_fract_x 
_atom_site_fract_y 
_atom_site_fract_z 
_atom_site_charge 
O1          O  0.43221352  0.73496301  0.24046791    -0.70700
O2          O  0.55724796  0.73224777  0.24041417    -0.70900
O3          O  0.49294054  0.71581876  0.27434955    -0.70800
O4          O  0.49582868  0.75158353  0.20648419    -0.70800
O5          O  0.49973840  0.78515281  0.23002541    -0.70800
O6          O  0.49341589  0.74960522  0.29761350    -0.70800
O7          O  0.55923001  0.76542125  0.26477163    -0.70700
O8          O  0.43428399  0.76914725  0.26293617    -0.70900
V9          V  0.49467175  0.73430787  0.24084074     1.35200
V10         V  0.49674347  0.76667588  0.26336502     1.35200
C11         C  0.41186009  0.75238472  0.25183373     0.78500
C12         C  0.57967615  0.74830064  0.25283476     0.78600
C13         C  0.49159362  0.72669700  0.29760984     0.78500
C14         C  0.49796093  0.77452132  0.20666273     0.78400
O15         O  0.99731067  0.74863299  0.29953441    -0.70700
O16         O  0.99682848  0.71409772  0.23087445    -0.70900
O17         O  0.05965236  0.73226501  0.26471787    -0.70800
O18         O  0.93456372  0.73045054  0.26585834    -0.70800
O19         O  0.93255636  0.76457053  0.24329114    -0.70800
O20         O  0.05768879  0.76624229  0.24184479    -0.70800
O21         O  0.99472791  0.74819783  0.20826858    -0.70700
O22         O  0.99552002  0.78264470  0.27674625    -0.70900
V23         V  0.99708161  0.73200322  0.26478790     1.35200
V24         V  0.99515815  0.76474015  0.24296923     1.35200
C25         C  0.99668661  0.77158984  0.29985251     0.78500
C26         C  0.99533379  0.72527121  0.20780971     0.78600
C27         C  0.08006583  0.74973684  0.25348472     0.78500
C28         C  0.91212725  0.74715022  0.25466391     0.78400
O29         O  0.50524071  0.25488667  0.70089956    -0.70700
O30         O  0.49906373  0.21706671  0.76722488    -0.70900
O31         O  0.43998424  0.23667149  0.73223908    -0.70800
O32         O  0.56455634  0.23495625  0.73528771    -0.70800
O33         O  0.56510384  0.26737407  0.76110542    -0.70800
O34         O  0.43960926  0.26997753  0.75639922    -0.70800
O35         O  0.49791403  0.25009646  0.79187767    -0.70700
O36         O  0.50659388  0.28778000  0.72578645    -0.70900
V37         V  0.50225624  0.23654054  0.73443173     1.35200
V38         V  0.50231061  0.26819284  0.75831771     1.35200
C39         C  0.50684941  0.27783040  0.70200685     0.78500
C40         C  0.49719833  0.22717513  0.79094771     0.78600
C41         C  0.41837628  0.25355335  0.74367008     0.78500
C42         C  0.58616634  0.25075665  0.74857744     0.78400
O43         O  0.06392349  0.26561003  0.73783366    -0.70700
O44         O  0.93913038  0.26444635  0.73824433    -0.70900
O45         O  0.00125620  0.28260543  0.77201602    -0.70800
O46         O  0.00230047  0.24738146  0.70403119    -0.70800
O47         O  0.00616771  0.21358170  0.72711923    -0.70800
O48         O  0.00006462  0.24891101  0.79542936    -0.70800
O49         O  0.94004642  0.22974964  0.75974084    -0.70700
O50         O  0.06562582  0.23252131  0.76235459    -0.70900
V51         V  0.00161442  0.26432770  0.73851726     1.35200
V52         V  0.00285408  0.23182715  0.76079384     1.35200
C53         C  0.08620426  0.24933595  0.74989515     0.78500
C54         C  0.91820358  0.24677914  0.74861551     0.78600
C55         C  0.00050868  0.27190375  0.79534725     0.78500
C56         C  0.00544144  0.22450163  0.70386424     0.78400
O57         O  0.50318383  0.74916697  0.79931811    -0.70700
O58         O  0.50316282  0.71323100  0.73168096    -0.70900
O59         O  0.56584747  0.73174370  0.76509234    -0.70800
O60         O  0.44063345  0.73080404  0.76606304    -0.70800
O61         O  0.43931358  0.76492362  0.74348101    -0.70800
O62         O  0.56451392  0.76467758  0.74022748    -0.70800
O63         O  0.50001503  0.74672469  0.70796960    -0.70700
O64         O  0.50378722  0.78276991  0.77572906    -0.70900
V65         V  0.50319972  0.73187947  0.76504152     1.35200
V66         V  0.50195205  0.76413339  0.74229300     1.35200
C67         C  0.50342552  0.77210673  0.79914949     0.78500
C68         C  0.50136980  0.72376463  0.70823593     0.78600
C69         C  0.58657173  0.74822303  0.75220520     0.78500
C70         C  0.41854017  0.74797198  0.75549861     0.78400
O71         O  0.00562850  0.75301958  0.70811667    -0.70700
O72         O  0.00103407  0.71519231  0.77401676    -0.70900
O73         O  0.94085462  0.73409479  0.73966353    -0.70800
O74         O  0.06579431  0.73385715  0.74288923    -0.70800
O75         O  0.06448419  0.76612215  0.76883683    -0.70800
O76         O  0.93939048  0.76781980  0.76314208    -0.70800
O77         O  0.99752184  0.74810748  0.79880786    -0.70700
O78         O  0.00639116  0.78594839  0.73296474    -0.70900
V79         V  0.00331597  0.73472997  0.74158880     1.35200
V80         V  0.00197984  0.76639363  0.76544927     1.35200
C81         C  0.00695982  0.77593941  0.70921649     0.78500
C82         C  0.99823422  0.72519155  0.79767890     0.78600
C83         C  0.91878256  0.75094111  0.75088215     0.78500
C84         C  0.08651564  0.74954837  0.75697539     0.78400
C85         C  0.48911951  0.86945058  0.97711276     0.04200
C86         C  0.48794616  0.85763256  0.00297437    -0.12000
C87         C  0.48624528  0.87097789  0.02785336     0.01700
C88         C  0.48594902  0.89648880  0.02677104    -0.10500
C89         C  0.48701172  0.90860969  0.00090101     0.04200
C90         C  0.48810066  0.89489472  0.97614488    -0.09900
H91         H  0.48883953  0.83795874  0.00374904     0.09800
H92         H  0.48547698  0.90684887  0.04600523     0.07300
H93         H  0.48883324  0.90401756  0.95609876     0.07200
C94         C  0.50331265  0.13003990  0.96941522     0.04200
C95         C  0.50558530  0.14250003  0.99493865    -0.12000
C96         C  0.50533538  0.12977064  0.02035964     0.01700
C97         C  0.50455997  0.10427255  0.01998343    -0.10500
C98         C  0.50179164  0.09159928  0.99459882     0.04200
C99         C  0.50066619  0.10459205  0.96937788    -0.09900
H100        H  0.50689144  0.16215218  0.99499568     0.09800
H101        H  0.50440296  0.09428129  0.03946653     0.07300
H102        H  0.49847152  0.09488989  0.94972389     0.07200
C103        C  0.52549213  0.37097304  0.47002526     0.04200
C104        C  0.52940500  0.39639227  0.46968839    -0.12000
C105        C  0.53044339  0.40967276  0.49477530     0.01700
C106        C  0.52810930  0.39714027  0.52033024    -0.10500
C107        C  0.52437002  0.37175657  0.52103800     0.04200
C108        C  0.52300183  0.35886329  0.49577259    -0.09900
H109        H  0.52989459  0.40585105  0.44987308     0.09800
H110        H  0.52960671  0.40716774  0.53977135     0.07300
H111        H  0.51977750  0.33927008  0.49612547     0.07200
C112        C  0.49640324  0.63175675  0.47707126     0.04200
C113        C  0.50514688  0.60683753  0.47500254    -0.12000
C114        C  0.50756505  0.59216683  0.49896373     0.01700
C115        C  0.50276512  0.60325180  0.52537566    -0.10500
C116        C  0.49648761  0.62848615  0.52783059     0.04200
C117        C  0.49288918  0.64251880  0.50347153    -0.09900
H118        H  0.51084116  0.59908988  0.45454228     0.09800
H119        H  0.50335318  0.59226551  0.54409987     0.07300
H120        H  0.48756704  0.66192747  0.50500248     0.07200
C121        C  0.99424607  0.86776138  0.47874987     0.04200
C122        C  0.99151467  0.89319656  0.47719640    -0.12000
C123        C  0.99357032  0.90757840  0.50149747     0.01700
C124        C  0.99852764  0.89592490  0.52753740    -0.10500
C125        C  0.00093525  0.87048177  0.52928905     0.04200
C126        C  0.99865463  0.85662101  0.50483795    -0.09900
H127        H  0.98799010  0.90175699  0.45698615     0.09800
H128        H  0.00161783  0.90656510  0.54645314     0.07300
H129        H  0.99956926  0.83696983  0.50614960     0.07200
C130        C  0.00384877  0.12933922  0.52331885     0.04200
C131        C  0.00024820  0.10386608  0.52285840    -0.12000
C132        C  0.99807233  0.09133803  0.49730146     0.01700
C133        C  0.99977069  0.10440736  0.47211679    -0.10500
C134        C  0.00342550  0.12987325  0.47226844     0.04200
C135        C  0.00530551  0.14208683  0.49797251    -0.09900
H136        H  0.99888718  0.09380547  0.54231259     0.09800
H137        H  0.99772756  0.09473051  0.45247833     0.07300
H138        H  0.00879196  0.16165668  0.49828465     0.07200
C139        C  0.01083588  0.37213905  0.97168739     0.04200
C140        C  0.01390501  0.36014435  0.99744804    -0.12000
C141        C  0.01139929  0.37315468  0.02259479     0.01700
C142        C  0.00685375  0.39848285  0.02175648    -0.10500
C143        C  0.00477596  0.41077392  0.99612652     0.04200
C144        C  0.00668427  0.39751834  0.97111655    -0.09900
H145        H  0.01660799  0.34053409  0.99791812     0.09800
H146        H  0.00592366  0.40872818  0.04109014     0.07300
H147        H  0.00469871  0.40691597  0.95127185     0.07200
C148        C  0.99426187  0.63138654  0.02703006     0.04200
C149        C  0.99372034  0.64356581  0.00128722    -0.12000
C150        C  0.99541795  0.63051247  0.97619432     0.01700
C151        C  0.99785825  0.60519952  0.97681495    -0.10500
C152        C  0.99752883  0.59274710  0.00227063     0.04200
C153        C  0.99563927  0.60586916  0.02733607    -0.09900
H154        H  0.99294257  0.66324384  0.00071351     0.09800
H155        H  0.99925344  0.59512921  0.95738140     0.07300
H156        H  0.99419672  0.59618712  0.04698878     0.07200
O157        O  0.57043397  0.26513880  0.23377355    -0.70700
O158        O  0.44569153  0.26387207  0.23716600    -0.70900
O159        O  0.50987836  0.28263135  0.26889597    -0.70800
O160        O  0.50642510  0.24604769  0.20178716    -0.70800
O161        O  0.50815352  0.21264933  0.22574419    -0.70800
O162        O  0.51343059  0.24936022  0.29299327    -0.70800
O163        O  0.44795796  0.23060813  0.26142127    -0.70700
O164        O  0.57333551  0.23125069  0.25693388    -0.70900
V165        V  0.50811505  0.26372339  0.23585006     1.35200
V166        V  0.51063878  0.23160675  0.25886215     1.35200
C167        C  0.59311939  0.24847717  0.24475300     0.78500
C168        C  0.42545022  0.24714545  0.24988658     0.78600
C169        C  0.51276420  0.27234313  0.29240874     0.78500
C170        C  0.50671789  0.22307984  0.20223621     0.78400
O171        O  0.00913180  0.25388992  0.20199575    -0.70700
O172        O  0.00918421  0.21748513  0.26956201    -0.70900
O173        O  0.94659566  0.23546531  0.23589999    -0.70800
O174        O  0.07155791  0.23564108  0.23577409    -0.70800
O175        O  0.07144326  0.26817105  0.26130753    -0.70800
O176        O  0.94622445  0.27006966  0.25771878    -0.70800
O177        O  0.00598851  0.25091892  0.29338861    -0.70700
O178        O  0.01192609  0.28729562  0.22590586    -0.70900
V179        V  0.00906439  0.23628859  0.23624087     1.35200
V180        V  0.00887039  0.26847640  0.25914277     1.35200
C181        C  0.01110655  0.27684506  0.20237953     0.78500
C182        C  0.00756406  0.22794804  0.29306983     0.78600
C183        C  0.92517947  0.25284496  0.24647665     0.78500
C184        C  0.09291606  0.25163818  0.24898592     0.78400
C185        C  0.30630953  0.22639554  0.25556614    -0.27100
C186        C  0.28362604  0.24835529  0.25151105     0.06500
C187        C  0.30788178  0.26980958  0.24749155     0.26100
C188        C  0.35391310  0.26918832  0.24713928    -0.11600
C189        C  0.37671758  0.24725310  0.25109244    -0.25600
C190        C  0.35247490  0.22579955  0.25547561     0.36900
C191        C  0.23477291  0.24882516  0.25121860     0.06500
F192        F  0.28707924  0.29129834  0.24313628    -0.19400
H193        H  0.37176744  0.28594529  0.24377586     0.16300
F194        F  0.37322118  0.20417336  0.25889344    -0.23100
H195        H  0.28822133  0.20971000  0.25887511     0.18100
C196        C  0.21081805  0.23312634  0.23376750     0.26100
C197        C  0.16476395  0.23411726  0.23323663    -0.11600
C198        C  0.14170583  0.25083671  0.24998257    -0.25600
C199        C  0.16578053  0.26645319  0.26757330     0.37000
C200        C  0.21182966  0.26537328  0.26815103    -0.27300
F201        F  0.23196010  0.21731956  0.21660911    -0.19400
H202        H  0.14719271  0.22193962  0.21944909     0.16300
F203        F  0.14500559  0.28264612  0.28442241    -0.23100
H204        H  0.22965468  0.27742003  0.28197214     0.18100
C205        C  0.70995593  0.27181375  0.24855263    -0.27100
C206        C  0.73461756  0.25100804  0.24168639     0.06500
C207        C  0.71173259  0.22937633  0.23523319     0.31300
C208        C  0.66569837  0.22852192  0.23681707    -0.11600
C209        C  0.64153081  0.24937700  0.24353025    -0.25600
C210        C  0.66391267  0.27118091  0.24885429     0.36900
C211        C  0.78380557  0.25173340  0.24250750     0.06500
F212        F  0.73361575  0.20915543  0.22683225    -0.19400
H213        H  0.64878192  0.21166610  0.23212085     0.16300
F214        F  0.64126192  0.29166379  0.25542237    -0.23100
H215        H  0.72623006  0.28856346  0.25436767     0.18100
C216        C  0.80767326  0.27225226  0.23323186     0.26100
C217        C  0.85369139  0.27286809  0.23544007    -0.11600
C218        C  0.87678127  0.25276335  0.24573928    -0.25600
C219        C  0.85340649  0.23218111  0.25449465     0.37000
C220        C  0.80741972  0.23193182  0.25350450    -0.27300
F221        F  0.78687883  0.29141055  0.22123870    -0.19400
H222        H  0.87147959  0.28875590  0.22820642     0.16300
F223        F  0.87508597  0.21253487  0.26469911    -0.23100
H224        H  0.79031395  0.21622206  0.26174479     0.18100
C225        C  0.01836270  0.29386099  0.12542594    -0.27100
C226        C  0.01419535  0.31924420  0.12646913     0.06500
C227        C  0.00912245  0.33053706  0.15262874     0.26100
C228        C  0.00822462  0.31665315  0.17710271    -0.11600
C229        C  0.01231020  0.29122453  0.17610411    -0.25600
C230        C  0.01757996  0.27995892  0.14988307     0.36900
C231        C  0.01457254  0.33369888  0.10022934     0.06500
F232        F  0.00597108  0.35505675  0.15461403    -0.19400
H233        H  0.00427409  0.32588692  0.19691818     0.16300
F234        F  0.02233318  0.25553525  0.14775963    -0.23100
H235        H  0.02178394  0.28469468  0.10551949     0.18100
C236        C  0.04711595  0.32985785  0.07969211     0.26100
C237        C  0.04607319  0.34286955  0.05462784    -0.11600
C238        C  0.01292852  0.36012947  0.04964958    -0.25600
C239        C  0.98080714  0.36429921  0.07031721     0.37000
C240        C  0.98158239  0.35111440  0.09528127    -0.27300
F241        F  0.08038012  0.31380932  0.08401610    -0.19400
H242        H  0.07138291  0.33958629  0.03912218     0.16300
F243        F  0.94767949  0.38043890  0.06595170    -0.23100
H244        H  0.95578715  0.35413725  0.11050906     0.18100
C245        C  0.96668863  0.47488873  0.01110535    -0.27100
C246        C  0.99951060  0.48847207  0.99768545     0.06500
C247        C  0.03293908  0.47656303  0.98273264     0.26100
C248        C  0.03374644  0.45121592  0.98157273    -0.11600
C249        C  0.00163276  0.43752305  0.99568196    -0.25600
C250        C  0.96782381  0.44955587  0.01030744     0.36900
C251        C  0.99861556  0.51509496  0.99935772     0.06500
F252        F  0.06464936  0.48948010  0.96929952    -0.19400
H253        H  0.06005207  0.44223103  0.97025753     0.16300
F254        F  0.93581859  0.43680092  0.02365112    -0.23100
H255        H  0.94056654  0.48395155  0.02250233     0.18100
C256        C  0.96715480  0.52828613  0.98423943     0.26100
C257        C  0.96683733  0.55355724  0.98554259    -0.11600
C258        C  0.99744958  0.56598235  0.00225410    -0.25600
C259        C  0.02839760  0.55271273  0.01789677     0.37000
C260        C  0.02913118  0.52738013  0.01621737    -0.27300
F261        F  0.93725381  0.51671113  0.96790122    -0.19400
H262        H  0.94257475  0.56349730  0.97350600     0.16300
F263        F  0.05860613  0.56423646  0.03407418    -0.23100
H264        H  0.05343265  0.51729857  0.02806639     0.18100
C265        C  0.03459682  0.15163445  0.39935151    -0.27100
C266        C  0.00853133  0.17265700  0.39664321     0.06500
C267        C  0.98027799  0.17908497  0.41880325     0.26100
C268        C  0.97875572  0.16502464  0.44309751    -0.11600
C269        C  0.00484928  0.14407128  0.44583955    -0.25600
C270        C  0.03276954  0.13743082  0.42361553     0.36900
C271        C  0.00950335  0.18704644  0.37024667     0.06500
F272        F  0.95282089  0.19844610  0.41665830    -0.19400
H273        H  0.95649961  0.17033481  0.45970908     0.16300
F274        F  0.05921467  0.11762569  0.42561727    -0.23100
H275        H  0.05671831  0.14628993  0.38269324     0.18100
C276        C  0.01215637  0.21258839  0.37046544     0.26100
C277        C  0.01105816  0.22570869  0.34540002    -0.11600
C278        C  0.00808007  0.21373032  0.31951770    -0.25600
C279        C  0.00655388  0.18815214  0.31931997     0.37000
C280        C  0.00715635  0.17507895  0.34438104    -0.27300
F281        F  0.01697915  0.22490623  0.39482331    -0.19400
H282        H  0.01304715  0.24531170  0.34628095     0.16300
F283        F  0.00408269  0.17563603  0.29496368    -0.23100
H284        H  0.00506000  0.15547384  0.34355922     0.18100
C285        C  0.96693496  0.97397399  0.51719135    -0.27100
C286        C  0.98933469  0.98611795  0.49561760     0.06500
C287        C  0.01204139  0.97221359  0.47554826     0.26100
C288        C  0.01323334  0.94685426  0.47758492    -0.11600
C289        C  0.99144962  0.93465495  0.49946349    -0.25600
C290        C  0.96769776  0.94859709  0.51908218     0.36900
C291        C  0.99072403  0.01319129  0.49505726     0.06500
F292        F  0.03283751  0.98312144  0.45379016    -0.19400
H293        H  0.03189681  0.93678226  0.46216735     0.16300
F294        F  0.94448515  0.93777162  0.53987979    -0.23100
H295        H  0.94936460  0.98420145  0.53298490     0.18100
C296        C  0.95214588  0.02721927  0.49839013     0.26100
C297        C  0.95461182  0.05265692  0.49930784    -0.11600
C298        C  0.99541179  0.06449859  0.49673145    -0.25600
C299        C  0.03375372  0.05060488  0.49303011     0.37000
C300        C  0.03140998  0.02523417  0.49229717    -0.27300
F301        F  0.91204282  0.01636564  0.50023833    -0.19400
H302        H  0.92465368  0.06315395  0.50184845     0.16300
F303        F  0.07357403  0.06163568  0.49045708    -0.23100
H304        H  0.06165762  0.01493737  0.49010038     0.18100
C305        C  0.51715514  0.32603100  0.34224229    -0.27100
C306        C  0.52187352  0.31445627  0.36812193     0.06500
C307        C  0.52381684  0.28897363  0.36906696     0.26100
C308        C  0.52084807  0.27536839  0.34444086    -0.11600
C309        C  0.51570142  0.28691174  0.31844239    -0.25600
C310        C  0.51394151  0.31249862  0.31764081     0.36900
C311        C  0.52308913  0.32905962  0.39407631     0.06500
F312        F  0.52924770  0.27728166  0.39377876    -0.19400
H313        H  0.52263764  0.25576865  0.34575004     0.16300
F314        F  0.50872695  0.32456957  0.29316229    -0.23100
H315        H  0.51514430  0.34563729  0.34114860     0.18100
C316        C  0.55442891  0.34761227  0.39772598     0.26100
C317        C  0.55475598  0.36138051  0.42229978    -0.11600
C318        C  0.52375568  0.35696208  0.44354973    -0.25600
C319        C  0.49181241  0.33873317  0.43953049     0.37000
C320        C  0.49176622  0.32486236  0.41510094    -0.27300
F321        F  0.58533603  0.35200760  0.37782557    -0.19400
H322        H  0.57977617  0.37522874  0.42496554     0.16300
F323        F  0.45992607  0.33471999  0.45890924    -0.23100
H324        H  0.46674676  0.31102278  0.41236719     0.18100
C325        C  0.55834962  0.47520994  0.47616716    -0.27100
C326        C  0.52984983  0.48787662  0.49407617     0.06500
C327        C  0.50219589  0.47491855  0.51219168     0.26100
C328        C  0.50284309  0.44959250  0.51233572    -0.11600
C329        C  0.53125260  0.43666831  0.49448438    -0.25600
C330        C  0.55933414  0.44976152  0.47643486     0.36900
C331        C  0.52803944  0.51462391  0.49375600     0.06500
F332        F  0.47387828  0.48683546  0.52936408    -0.19400
H333        H  0.48045818  0.44005121  0.52611569     0.16300
F334        F  0.58835275  0.43804069  0.45955260    -0.23100
H335        H  0.57997335  0.48504544  0.46217244     0.18100
C336        C  0.54657067  0.52810559  0.51561824     0.26100
C337        C  0.54082966  0.55327218  0.51673240    -0.11600
C338        C  0.51541465  0.56543953  0.49647496    -0.25600
C339        C  0.49717039  0.55166710  0.47436870     0.37000
C340        C  0.50398613  0.52657643  0.47296849    -0.27300
F341        F  0.56958987  0.51682173  0.53615370    -0.19400
H342        H  0.55610349  0.56318710  0.53366377     0.16300
F343        F  0.47070237  0.56202087  0.45488630    -0.23100
H344        H  0.48887291  0.51627475  0.45625701     0.18100
C345        C  0.47380262  0.17446556  0.07734973    -0.27100
C346        C  0.50416220  0.16868590  0.09847895     0.06500
C347        C  0.53430583  0.14963848  0.09393994     0.26100
C348        C  0.53443750  0.13699908  0.06858501    -0.11600
C349        C  0.50464437  0.14311070  0.04728323    -0.25600
C350        C  0.47392701  0.16182604  0.05201803     0.36900
C351        C  0.50430189  0.18261534  0.12506581     0.06500
F352        F  0.56447164  0.14367353  0.11370592    -0.19400
H353        H  0.55834134  0.12266286  0.06539133     0.16300
F354        F  0.44320035  0.16744359  0.03245414    -0.23100
H355        H  0.44959284  0.18863146  0.08059765     0.18100
C356        C  0.50458765  0.20815174  0.12494050     0.26100
C357        C  0.50517625  0.22108736  0.15006077    -0.11600
C358        C  0.50559503  0.20891254  0.17586778    -0.25600
C359        C  0.50525231  0.18332171  0.17597104     0.37000
C360        C  0.50443829  0.17040353  0.15081319    -0.27300
F361        F  0.50551983  0.22064830  0.10051852    -0.19400
H362        H  0.50567243  0.24072096  0.14924849     0.16300
F363        F  0.50575571  0.17067475  0.20029055    -0.23100
H364        H  0.50365499  0.15076529  0.15145764     0.18100
C365        C  0.52288804  0.97281607  0.98315281    -0.27100
C366        C  0.49120482  0.98678199  0.99723981     0.06500
C367        C  0.45782064  0.97494419  0.01245255     0.26100
C368        C  0.45675744  0.94952536  0.01383795    -0.11600
C369        C  0.48840189  0.93553866  0.99961955    -0.25600
C370        C  0.52143083  0.94745686  0.98414096     0.36900
C371        C  0.49391277  0.01364660  0.99641465     0.06500
F372        F  0.42691164  0.98797868  0.02646703    -0.19400
H373        H  0.43098414  0.94072580  0.02580261     0.16300
F374        F  0.55302299  0.93457687  0.97055752    -0.23100
H375        H  0.54881590  0.98162287  0.97131716     0.18100
C376        C  0.53149167  0.02569213  0.00661973     0.26100
C377        C  0.53382910  0.05105490  0.00601423    -0.11600
C378        C  0.49924398  0.06477325  0.99463225    -0.25600
C379        C  0.46195807  0.05275201  0.98400001     0.37000
C380        C  0.45917921  0.02738400  0.98516877    -0.27300
F381        F  0.56554109  0.01291028  0.01766518    -0.19400
H382        H  0.56279475  0.06004288  0.01429600     0.16300
F383        F  0.42787027  0.06560350  0.97310516    -0.23100
H384        H  0.43007965  0.01840732  0.97707484     0.18100
C385        C  0.03788251  0.82680777  0.58573332    -0.27100
C386        C  0.00740930  0.83174670  0.60705301     0.06500
C387        C  0.97592191  0.85017775  0.60311525     0.26100
C388        C  0.97488412  0.86328109  0.57811601    -0.11600
C389        C  0.00485880  0.85803856  0.55658212    -0.25600
C390        C  0.03665851  0.83976204  0.56068739     0.36900
C391        C  0.00835352  0.81746608  0.63319588     0.06500
F392        F  0.94509889  0.85482253  0.62299574    -0.19400
H393        H  0.94969517  0.87700731  0.57518783     0.16300
F394        F  0.06670247  0.83452632  0.54052381    -0.23100
H395        H  0.06272284  0.81287165  0.58852385     0.18100
C396        C  0.00692266  0.79198386  0.63246161     0.26100
C397        C  0.00691641  0.77869106  0.65726256    -0.11600
C398        C  0.00852225  0.79048878  0.68327082    -0.25600
C399        C  0.01071637  0.81603673  0.68395406     0.37000
C400        C  0.01050695  0.82932127  0.65909125    -0.27300
F401        F  0.00425135  0.77994174  0.60778849    -0.19400
H402        H  0.00515559  0.75908467  0.65605090     0.16300
F403        F  0.01296909  0.82825749  0.70852546    -0.23100
H404        H  0.01223901  0.84894473  0.66002725     0.18100
C405        C  0.95929963  0.67150802  0.91748191    -0.27100
C406        C  0.99246204  0.66729951  0.89761960     0.06500
C407        C  0.02626280  0.65062593  0.90348768     0.26100
C408        C  0.02693809  0.63857869  0.92910116    -0.11600
C409        C  0.99421999  0.64317959  0.94917498    -0.25600
C410        C  0.96009077  0.65956535  0.94310749     0.36900
C411        C  0.99317862  0.68174764  0.87180536     0.06500
F412        F  0.05951980  0.64679222  0.88499381    -0.19400
H413        H  0.05355114  0.62602153  0.93355835     0.16300
F414        F  0.92725372  0.66373489  0.96179626    -0.23100
H415        H  0.93289972  0.68424013  0.91314850     0.18100
C416        C  0.99517585  0.67064886  0.84545161     0.26100
C417        C  0.99667469  0.68490999  0.82138826    -0.11600
C418        C  0.99607326  0.71039298  0.82328221    -0.25600
C419        C  0.99363205  0.72138441  0.84977277     0.37000
C420        C  0.99215376  0.70711390  0.87373569    -0.27300
F421        F  0.99485600  0.64609951  0.84296968    -0.19400
H422        H  0.99825754  0.67597526  0.80127300     0.16300
F423        F  0.99294396  0.74588513  0.85269029    -0.23100
H424        H  0.99077766  0.71590004  0.89395082     0.18100
C425        C  0.29891887  0.76837893  0.75137101    -0.27100
C426        C  0.27691056  0.74820044  0.76255030     0.06500
C427        C  0.30157648  0.72809236  0.77151074     0.26100
C428        C  0.34752461  0.72821131  0.76917999    -0.11600
C429        C  0.36974590  0.74824868  0.75761026    -0.25600
C430        C  0.34485553  0.76844577  0.74874197     0.36900
C431        C  0.22815791  0.74770982  0.76310056     0.06500
F432        F  0.28121552  0.70841571  0.78269881    -0.19400
H433        H  0.36572632  0.71246591  0.77633381     0.16300
F434        F  0.36467107  0.78824788  0.73746206    -0.23100
H435        H  0.28031210  0.78393137  0.74405346     0.18100
C436        C  0.20396255  0.76607806  0.77650937     0.26100
C437        C  0.15789941  0.76642624  0.77474275    -0.11600
C438        C  0.13521128  0.74847578  0.75956649    -0.25600
C439        C  0.15961942  0.72961081  0.74699918     0.37000
C440        C  0.20559392  0.72933765  0.74876712    -0.27300
F441        F  0.22489319  0.78359072  0.79139994    -0.19400
H442        H  0.14004533  0.78089923  0.78504789     0.16300
F443        F  0.13932199  0.71152404  0.73268497    -0.23100
H444        H  0.22374606  0.71505537  0.73829979     0.18100
C445        C  0.70441528  0.76044616  0.72947993    -0.27100
C446        C  0.72839361  0.74811085  0.75011026     0.06500
C447        C  0.70553793  0.73577619  0.77135199     0.26100
C448        C  0.65942729  0.73574832  0.77178094    -0.11600
C449        C  0.63532818  0.74820059  0.75123028    -0.25600
C450        C  0.65830258  0.76051470  0.72994271     0.36900
C451        C  0.77717532  0.74873621  0.74974321     0.06500
F452        F  0.72781965  0.72440180  0.79215339    -0.19400
H453        H  0.64253312  0.72631624  0.78852382     0.16300
F454        F  0.63629152  0.77222399  0.70927573    -0.23100
H455        H  0.72153460  0.76993683  0.71286409     0.18100
C456        C  0.80191291  0.72716420  0.74944777     0.26100
C457        C  0.84798166  0.72808714  0.74943913    -0.11600
C458        C  0.87012587  0.75048069  0.75009991    -0.25600
C459        C  0.84536361  0.77206422  0.75022656     0.37000
C460        C  0.79926166  0.77113576  0.74979128    -0.27300
F461        F  0.78154740  0.70522740  0.74875037    -0.19400
H462        H  0.86639994  0.71124505  0.74934285     0.16300
F463        F  0.86565026  0.79402598  0.75022044    -0.23100
H464        H  0.78069586  0.78792547  0.74988752     0.18100
C465        C  0.50059945  0.78798177  0.87646990    -0.27100
C466        C  0.49971027  0.81340452  0.87552893     0.06500
C467        C  0.50105405  0.82517081  0.84953455     0.26100
C468        C  0.50264600  0.81164403  0.82486059    -0.11600
C469        C  0.50282955  0.78612673  0.82561380    -0.25600
C470        C  0.50181731  0.77438625  0.85180540     0.36900
C471        C  0.49677779  0.82758366  0.90167225     0.06500
F472        F  0.50140174  0.84977600  0.84806298    -0.19400
H473        H  0.50355987  0.82121343  0.80510421     0.16300
F474        F  0.50149717  0.74980591  0.85370856    -0.23100
H475        H  0.49950187  0.77864783  0.89637952     0.18100
C476        C  0.46121198  0.84346540  0.90627913     0.26100
C477        C  0.45910832  0.85724321  0.93075332    -0.11600
C478        C  0.49206664  0.85511522  0.95112542    -0.25600
C479        C  0.52737417  0.83899838  0.94670944     0.37000
C480        C  0.52962445  0.82532554  0.92213608    -0.27300
F481        F  0.42804461  0.84519826  0.88736838    -0.19400
H482        H  0.43137944  0.86932080  0.93404790     0.16300
F483        F  0.56010981  0.83691905  0.96588771    -0.23100
H484        H  0.55727862  0.81319923  0.91887436     0.18100
C485        C  0.49894151  0.70673205  0.63116794    -0.27100
C486        C  0.49689582  0.68128624  0.63252842     0.06500
C487        C  0.49734880  0.66996904  0.65882065     0.26100
C488        C  0.49907707  0.68390675  0.68320738    -0.11600
C489        C  0.50057991  0.70941237  0.68196435    -0.25600
C490        C  0.50092782  0.72071372  0.65555032     0.36900
C491        C  0.49488232  0.66672257  0.60646494     0.06500
F492        F  0.49499363  0.64543754  0.66096693    -0.19400
H493        H  0.49884914  0.67464542  0.70315958     0.16300
F494        F  0.50341381  0.74522363  0.65315003    -0.23100
H495        H  0.49945006  0.71580459  0.61109561     0.18100
C496        C  0.46320352  0.67177022  0.58584555     0.26100
C497        C  0.46298782  0.65874568  0.56076750    -0.11600
C498        C  0.49446541  0.64050547  0.55564903    -0.25600
C499        C  0.52550860  0.63507765  0.57660896     0.37000
C500        C  0.52556345  0.64805292  0.60174947    -0.27300
F501        F  0.43228240  0.68922784  0.59000366    -0.19400
H502        H  0.43836644  0.66305638  0.54521949     0.16300
F503        F  0.55728231  0.61812470  0.57230139    -0.23100
H504        H  0.55050102  0.64404021  0.61720199     0.18100
C505        C  0.03851648  0.15098428  0.59544959    -0.27100
C506        C  0.00959845  0.17056278  0.59984965     0.06500
C507        C  0.97902378  0.17648937  0.57882636     0.26100
C508        C  0.97721629  0.16285915  0.55423231    -0.11600
C509        C  0.00564750  0.14305796  0.55000529    -0.25600
C510        C  0.03664054  0.13731394  0.57082123     0.36900
C511        C  0.01064854  0.18437261  0.62652645     0.06500
F512        F  0.95006280  0.19503340  0.58237997    -0.19400
H513        H  0.95303877  0.16765569  0.53840583     0.16300
F514        F  0.06596022  0.11900255  0.56696183    -0.23100
H515        H  0.06303224  0.14637957  0.61113387     0.18100
C516        C  0.00921550  0.17222317  0.65235017     0.26100
C517        C  0.00799786  0.18535849  0.67734190    -0.11600
C518        C  0.00818639  0.21087291  0.67717497    -0.25600
C519        C  0.01083154  0.22302941  0.65131173     0.37000
C520        C  0.01194908  0.20985643  0.62633762    -0.27300
F521        F  0.00737117  0.14762921  0.65342242    -0.19400
H522        H  0.00622019  0.17548534  0.69686129     0.16300
F523        F  0.01237187  0.24763169  0.65003546    -0.23100
H524        H  0.01388199  0.21962661  0.60671260     0.18100
C525        C  0.97285108  0.34493661  0.90324876    -0.27100
C526        C  0.00687505  0.32834464  0.89743904     0.06500
C527        C  0.04303487  0.32690165  0.91576899     0.26100
C528        C  0.04440029  0.34139604  0.93974684    -0.11600
C529        C  0.01022652  0.35784294  0.94556183    -0.25600
C530        C  0.97451589  0.35963520  0.92700758     0.36900
C531        C  0.00496726  0.31346664  0.87163362     0.06500
F532        F  0.07757895  0.31201354  0.91011720    -0.19400
H533        H  0.07234076  0.33994847  0.95372339     0.16300
F534        F  0.94056203  0.37502780  0.93233419    -0.23100
H535        H  0.94469759  0.34634197  0.88945022     0.18100
C536        C  0.01101145  0.28813152  0.87220575     0.26100
C537        C  0.00892088  0.27461551  0.84743740    -0.11600
C538        C  0.00091690  0.28610098  0.82169708    -0.25600
C539        C  0.99448044  0.31144084  0.82132698     0.37000
C540        C  0.99638704  0.32484251  0.84602293    -0.27300
F541        F  0.01803481  0.27638582  0.89672033    -0.19400
H542        H  0.01393892  0.25517301  0.84838815     0.16300
F543        F  0.98621018  0.32341495  0.79712699    -0.23100
H544        H  0.99163926  0.34431816  0.84508840     0.18100
C545        C  0.20326665  0.27008245  0.73558783    -0.27100
C546        C  0.22785946  0.24997200  0.74441200     0.06500
C547        C  0.20579977  0.22969786  0.75553210     0.26100
C548        C  0.15973321  0.22969276  0.75774282    -0.11600
C549        C  0.13500478  0.24982058  0.74871744    -0.25600
C550        C  0.15738161  0.27007597  0.73762956     0.36900
C551        C  0.27654895  0.25104453  0.74321596     0.06500
F552        F  0.22879647  0.21019442  0.76490991    -0.19400
H553        H  0.14345565  0.21390512  0.76633863     0.16300
F554        F  0.13513941  0.29005127  0.72887554    -0.23100
H555        H  0.21970986  0.28584522  0.72706138     0.18100
C556        C  0.30118193  0.23312486  0.72935258     0.26100
C557        C  0.34724425  0.23436100  0.72910707    -0.11600
C558        C  0.36953527  0.25350135  0.74256708    -0.25600
C559        C  0.34458902  0.27186688  0.75554221     0.37000
C560        C  0.29860853  0.27054075  0.75585345    -0.27300
F561        F  0.28073229  0.21467784  0.71572436    -0.19400
H562        H  0.36549181  0.22013941  0.71854484     0.16300
F563        F  0.36443382  0.29098901  0.76821689    -0.23100
H564        H  0.28005458  0.28466031  0.76641066     0.18100
C565        C  0.70571852  0.25643893  0.77098034    -0.27100
C566        C  0.72771333  0.24768760  0.74720562     0.06500
C567        C  0.70301043  0.23987667  0.72412556     0.26100
C568        C  0.65695962  0.24089318  0.72489822    -0.11600
C569        C  0.63483144  0.24983088  0.74857864    -0.25600
C570        C  0.65959876  0.25748048  0.77176636     0.36900
C571        C  0.77642671  0.24723212  0.74655934     0.06500
F572        F  0.72341594  0.23186678  0.70062110    -0.19400
H573        H  0.63850932  0.23503551  0.70673988     0.16300
F574        F  0.63929731  0.26523448  0.79541394    -0.23100
H575        H  0.72441998  0.26231495  0.78903708     0.18100
C576        C  0.80032175  0.26901374  0.74762910     0.26100
C577        C  0.84637403  0.26861861  0.74792500    -0.11600
C578        C  0.86944065  0.24650142  0.74783856    -0.25600
C579        C  0.84546755  0.22462950  0.74667282     0.37000
C580        C  0.79925761  0.22507429  0.74570332    -0.27300
F581        F  0.77901087  0.29067506  0.74827701    -0.19400
H582        H  0.86408733  0.28569589  0.74876266     0.16300
F583        F  0.86661609  0.20292025  0.74601505    -0.23100
H584        H  0.78118342  0.20811078  0.74481455     0.18100
C585        C  0.54256293  0.32524184  0.57832266    -0.27100
C586        C  0.51375191  0.33339531  0.59929687     0.06500
C587        C  0.48911830  0.35468486  0.59464891     0.26100
C588        C  0.49296284  0.36718224  0.56929049    -0.11600
C589        C  0.52128223  0.35871344  0.54813380    -0.25600
C590        C  0.54627644  0.33762530  0.55302075     0.36900
C591        C  0.51009974  0.31947940  0.62577861     0.06500
F592        F  0.46047536  0.36302990  0.61423355    -0.19400
H593        H  0.47308046  0.38328776  0.56595567     0.16300
F594        F  0.57521578  0.32927232  0.53362945    -0.23100
H595        H  0.56277289  0.30926860  0.58166532     0.18100
C596        C  0.50537378  0.29407782  0.62526411     0.26100
C597        C  0.50471905  0.28081415  0.65008039    -0.11600
C598        C  0.50831807  0.29249270  0.67604642    -0.25600
C599        C  0.51247592  0.31799436  0.67664648     0.37000
C600        C  0.51336912  0.33128204  0.65170776    -0.27300
F601        F  0.50075152  0.28202348  0.60071873    -0.19400
H602        H  0.50109491  0.26129496  0.64889870     0.16300
F603        F  0.51626124  0.33013530  0.70119677    -0.23100
H604        H  0.51762062  0.35077353  0.65265046     0.18100
C605        C  0.49026848  0.17405315  0.84150217    -0.27100
C606        C  0.49525959  0.18580635  0.86731341     0.06500
C607        C  0.49920172  0.21120238  0.86793786     0.26100
C608        C  0.49882763  0.22451972  0.84307982    -0.11600
C609        C  0.49502568  0.21276226  0.81708929    -0.25600
C610        C  0.49026006  0.18732589  0.81658534     0.36900
C611        C  0.49728886  0.17140004  0.89339668     0.06500
F612        F  0.50309922  0.22315197  0.89260856    -0.19400
H613        H  0.50220187  0.24403908  0.84420214     0.16300
F614        F  0.48591340  0.17517250  0.79209135    -0.23100
H615        H  0.48727470  0.15451289  0.84063031     0.18100
C616        C  0.46305001  0.15535537  0.90057014     0.26100
C617        C  0.46552868  0.14163427  0.92511685    -0.11600
C618        C  0.50211541  0.14378939  0.94289304    -0.25600
C619        C  0.53661479  0.15962135  0.93558313     0.37000
C620        C  0.53413226  0.17334946  0.91103824    -0.27300
F621        F  0.42669335  0.15342184  0.88420403    -0.19400
H622        H  0.43862717  0.12970025  0.93053557     0.16300
F623        F  0.57307469  0.16143099  0.95188677    -0.23100
H624        H  0.56107849  0.18526540  0.90562364     0.18100
C625        C  0.99757725  0.82322413  0.35228491    -0.27100
C626        C  0.99551013  0.81059833  0.37766555     0.06500
C627        C  0.99441390  0.78510793  0.37741649     0.26100
C628        C  0.99523630  0.77253148  0.35206012    -0.11600
C629        C  0.99702643  0.78514655  0.32654613    -0.25600
C630        C  0.99851766  0.81071724  0.32694193     0.36900
C631        C  0.99415930  0.82433696  0.40415380     0.06500
F632        F  0.99123833  0.77240672  0.40162241    -0.19400
H633        H  0.99393416  0.75289963  0.35241986     0.16300
F634        F  0.00090325  0.82374771  0.30293280    -0.23100
H635        H  0.99874061  0.84286944  0.35213341     0.18100
C636        C  0.02591839  0.82043182  0.42501222     0.26100
C637        C  0.02549190  0.83448467  0.44930305    -0.11600
C638        C  0.99348222  0.85266000  0.45316023    -0.25600
C639        C  0.96118386  0.85618493  0.43251374     0.37000
C640        C  0.96175907  0.84221039  0.40816747    -0.27300
F641        F  0.05829800  0.80368952  0.42143581    -0.19400
H642        H  0.05079285  0.83153655  0.46487359     0.16300
F643        F  0.92858831  0.87278390  0.43611432    -0.23100
H644        H  0.93678586  0.84526819  0.39240987     0.18100
C645        C  0.02124584  0.65236528  0.10041624    -0.27100
C646        C  0.99230748  0.67203911  0.10373743     0.06500
C647        C  0.96434232  0.67853063  0.08154383     0.26100
C648        C  0.96494865  0.66521903  0.05668759    -0.11600
C649        C  0.99359000  0.64532262  0.05349875    -0.25600
C650        C  0.02201592  0.63913824  0.07557807     0.36900
C651        C  0.99194092  0.68571164  0.13034350     0.06500
F652        F  0.93572720  0.69735878  0.08411033    -0.19400
H653        H  0.94262895  0.67026531  0.04006983     0.16300
F654        F  0.05157615  0.62078061  0.07288219    -0.23100
H655        H  0.04378815  0.64745285  0.11697057     0.18100
C656        C  0.98879609  0.67347634  0.15603276     0.26100
C657        C  0.98993853  0.68644688  0.18107972    -0.11600
C658        C  0.99406307  0.71185515  0.18103065    -0.25600
C659        C  0.99668015  0.72410566  0.15523403     0.37000
C660        C  0.99577830  0.71108505  0.13020666    -0.27300
F661        F  0.98388570  0.64899338  0.15690279    -0.19400
H662        H  0.98737988  0.67654990  0.20055159     0.16300
F663        F  0.00063970  0.74862382  0.15406146    -0.23100
H664        H  0.99878435  0.72082986  0.11065536     0.18100
C665        C  0.19941957  0.73694712  0.27200863    -0.27100
C666        C  0.22161533  0.75382773  0.25520176     0.06500
C667        C  0.19721036  0.76960759  0.23816670     0.26100
C668        C  0.15118363  0.76817238  0.23768346    -0.11600
C669        C  0.12879193  0.75105259  0.25424860    -0.25600
C670        C  0.15343936  0.73562225  0.27176170     0.36900
C671        C  0.27024989  0.75384820  0.25445702     0.06500
F672        F  0.21794864  0.78583210  0.22133768    -0.19400
H673        H  0.13309031  0.78030129  0.22407700     0.16300
F674        F  0.13327364  0.71943524  0.28891020    -0.23100
H675        H  0.21785920  0.72476489  0.28538710     0.18100
C676        C  0.29458212  0.77469184  0.26135571     0.26100
C677        C  0.34069902  0.77416349  0.26046009    -0.11600
C678        C  0.36312219  0.75290766  0.25246157    -0.25600
C679        C  0.33847193  0.73206029  0.24565776     0.37000
C680        C  0.29252398  0.73258512  0.24679594    -0.27300
F681        F  0.27379017  0.79533773  0.26950789    -0.19400
H682        H  0.35883298  0.79038999  0.26598279     0.16300
F683        F  0.35860292  0.71099629  0.23830994    -0.23100
H684        H  0.27417262  0.71637291  0.24147615     0.18100
C685        C  0.69923894  0.76373937  0.26794450    -0.27100
C686        C  0.72156773  0.74538489  0.25344683     0.06500
C687        C  0.69723031  0.72767824  0.23904923     0.26100
C688        C  0.65106200  0.72860678  0.23899085    -0.11600
C689        C  0.62853132  0.74716824  0.25335014    -0.25600
C690        C  0.65326205  0.76469156  0.26798299     0.36900
C691        C  0.77026578  0.74535246  0.25310526     0.06500
F692        F  0.71811657  0.70997130  0.22440192    -0.19400
H693        H  0.63299419  0.71492933  0.22748677     0.16300
F694        F  0.63323311  0.78287663  0.28230095    -0.23100
H695        H  0.71758889  0.77741922  0.27928622     0.18100
C696        C  0.79338104  0.76552674  0.24278758     0.26100
C697        C  0.83939480  0.76593776  0.24340078    -0.11600
C698        C  0.86328434  0.74634206  0.25454361    -0.25600
C699        C  0.83995226  0.72613379  0.26502339     0.37000
C700        C  0.79382447  0.72565530  0.26408900    -0.27300
F701        F  0.77135477  0.78473602  0.23181358    -0.19400
H702        H  0.85632901  0.78170821  0.23515562     0.16300
F703        F  0.86150244  0.70684986  0.27619140    -0.23100
H704        H  0.77638128  0.71007138  0.27239864     0.18100
C705        C  0.49024908  0.79119172  0.12981198    -0.27100
C706        C  0.49403216  0.81657098  0.13085831     0.06500
C707        C  0.49932584  0.82797913  0.15689232     0.26100
C708        C  0.50118135  0.81416343  0.18133893    -0.11600
C709        C  0.49754313  0.78871848  0.18036919    -0.25600
C710        C  0.49204858  0.77733804  0.15425157     0.36900
C711        C  0.49170455  0.83098106  0.10476793     0.06500
F712        F  0.50130516  0.85254039  0.15879499    -0.19400
H713        H  0.50496803  0.82347210  0.20109635     0.16300
F714        F  0.48789976  0.75287249  0.15222724    -0.23100
H715        H  0.48608618  0.78207078  0.10996715     0.18100
C716        C  0.52468436  0.84800162  0.09809015     0.26100
C717        C  0.52190586  0.86156162  0.07346719    -0.11600
C718        C  0.48683321  0.85798369  0.05484502    -0.25600
C719        C  0.45419632  0.84072884  0.06127805     0.37000
C720        C  0.45655805  0.82746547  0.08611685    -0.27300
F721        F  0.56044401  0.85080656  0.11481530    -0.19400
H722        H  0.54792612  0.87433917  0.06845300     0.16300
F723        F  0.41998228  0.83680784  0.04357586    -0.23100
H724        H  0.43083956  0.81442208  0.09085148     0.18100
C725        C  0.47912188  0.71228771  0.37466404    -0.27100
C726        C  0.48362073  0.68695038  0.37482475     0.06500
C727        C  0.48854602  0.67463063  0.34925138     0.26100
C728        C  0.49053010  0.68761454  0.32420183    -0.11600
C729        C  0.48775041  0.71307357  0.32414629    -0.25600
C730        C  0.48126375  0.72528300  0.34968902     0.36900
C731        C  0.48494765  0.67363317  0.40171382     0.06500
F732        F  0.49321524  0.65013257  0.34852610    -0.19400
H733        H  0.49512791  0.67771653  0.30485968     0.16300
F734        F  0.47707408  0.74979632  0.35068520    -0.23100
H735        H  0.47419767  0.72210686  0.39403277     0.18100
C736        C  0.51260492  0.68147221  0.42355099     0.26100
C737        C  0.51561289  0.66803491  0.44821117    -0.11600
C738        C  0.49134666  0.64654341  0.45149493    -0.25600
C739        C  0.46266497  0.63911238  0.43007111     0.37000
C740        C  0.45950242  0.65258739  0.40545390    -0.27300
F741        F  0.53808382  0.70157923  0.42064461    -0.19400
H742        H  0.53789641  0.67405626  0.46447981     0.16300
F743        F  0.43729106  0.61898021  0.43311593    -0.23100
H744        H  0.43714185  0.64655277  0.38924449     0.18100
loop_ 
_geom_bond_atom_site_label_1 
_geom_bond_atom_site_label_2 
_geom_bond_distance 
_geom_bond_site_symmetry_2 
_ccdc_geom_bond_type 
O1            V9   1.894       .  S
O1           C11   1.264       .  A
O2            V9   1.900       .  S
O2           C12   1.265       .  A
O3            V9   1.901       .  S
O3           C13   1.265       .  A
O4            V9   1.901       .  S
O4           C14   1.265       .  A
O5           V10   1.896       .  S
O5           C14   1.264       .  A
O6           V10   1.893       .  S
O6           C13   1.263       .  A
O7           V10   1.897       .  S
O7           C12   1.265       .  A
O8           V10   1.898       .  S
O8           C11   1.264       .  A
V9           V10   2.085       .  T
C11         C678   1.478       .  S
C12         C689   1.483       .  S
C13         C729   1.480       .  S
C14         C709   1.482       .  S
O15          V23   1.899       .  S
O15          C25   1.265       .  A
O16          V23   1.900       .  S
O16          C26   1.265       .  A
O17          V23   1.897   1_455  S
O17          C27   1.264       .  A
O18          V23   1.898       .  S
O18          C28   1.264       .  A
O19          V24   1.898       .  S
O19          C28   1.265       .  A
O20          V24   1.898   1_455  S
O20          C27   1.264       .  A
O21          V24   1.895       .  S
O21          C26   1.263       .  A
O22          V24   1.895       .  S
O22          C25   1.264       .  A
V23          V24   2.085       .  T
C25         C629   1.480       .  S
C26         C658   1.481       .  S
C27         C669   1.479       .  S
C28         C698   1.481       .  S
O29          V37   1.900       .  S
O29          C39   1.266       .  A
O30          V37   1.904       .  S
O30          C40   1.266       .  A
O31          V37   1.891       .  S
O31          C41   1.262       .  A
O32          V37   1.891       .  S
O32          C42   1.262       .  A
O33          V38   1.909       .  S
O33          C42   1.267       .  A
O34          V38   1.906       .  S
O34          C41   1.267       .  A
O35          V38   1.896       .  S
O35          C40   1.264       .  A
O36          V38   1.900       .  S
O36          C39   1.264       .  A
V37          V38   2.085       .  T
C39         C598   1.483       .  S
C40         C609   1.484       .  S
C41         C558   1.482       .  S
C42         C569   1.476       .  S
O43          V51   1.890       .  S
O43          C53   1.263       .  A
O44          V51   1.894   1_655  S
O44          C54   1.263       .  A
O45          V51   1.894       .  S
O45          C55   1.264       .  A
O46          V51   1.897       .  S
O46          C56   1.264       .  A
O47          V52   1.903       .  S
O47          C56   1.266       .  A
O48          V52   1.909       .  S
O48          C55   1.267       .  A
O49          V52   1.908   1_655  S
O49          C54   1.266       .  A
O50          V52   1.905       .  S
O50          C53   1.266       .  A
V51          V52   2.085       .  T
C53         C549   1.481       .  S
C54         C578   1.479       .  S
C55         C538   1.485       .  S
C56         C518   1.485       .  S
O57          V65   1.898       .  S
O57          C67   1.264       .  A
O58          V65   1.899       .  S
O58          C68   1.265       .  A
O59          V65   1.899       .  S
O59          C69   1.265       .  A
O60          V65   1.898       .  S
O60          C70   1.265       .  A
O61          V66   1.900       .  S
O61          C70   1.265       .  A
O62          V66   1.899       .  S
O62          C69   1.265       .  A
O63          V66   1.904       .  S
O63          C68   1.266       .  A
O64          V66   1.903       .  S
O64          C67   1.266       .  A
V65          V66   2.085       .  T
C67         C469   1.484       .  S
C68         C489   1.486       .  S
C69         C449   1.479       .  S
C70         C429   1.483       .  S
O71          V79   1.895       .  S
O71          C81   1.265       .  A
O72          V79   1.891       .  S
O72          C82   1.263   1_455  A
O73          V79   1.896   1_655  S
O73          C83   1.264       .  A
O74          V79   1.896       .  S
O74          C84   1.264       .  A
O75          V80   1.902       .  S
O75          C84   1.266       .  A
O76          V80   1.902   1_655  S
O76          C83   1.265       .  A
O77          V80   1.893   1_655  S
O77          C82   1.264       .  A
O78          V80   1.897       .  S
O78          C81   1.264       .  A
V79          V80   2.086       .  T
C81         C398   1.479       .  S
C82         C418   1.474       .  S
C83         C458   1.476       .  S
C84         C438   1.483       .  S
C85         C478   1.476       .  S
C85          C86   1.400   1_556  A
C85          C90   1.403       .  A
C86          C87   1.401       .  A
C86          H91   1.085       .  S
C87         C718   1.478       .  S
C87          C88   1.407       .  A
C88          C89   1.408       .  A
C88          H92   1.084       .  S
C89         C369   1.486   1_554  S
C89          C90   1.406   1_554  A
C90          H93   1.084       .  S
C94         C618   1.479       .  S
C94          C95   1.404       .  A
C94          C99   1.404       .  A
C95          C96   1.405   1_556  A
C95         H100   1.083       .  S
C96         C349   1.484       .  S
C96          C97   1.405       .  A
C97          C98   1.404   1_554  A
C97         H101   1.083       .  S
C98         C378   1.480       .  S
C98          C99   1.405       .  A
C99         H102   1.084       .  S
C103        C318   1.485       .  S
C103        C104   1.406       .  A
C103        C108   1.404       .  A
C104        C105   1.407       .  A
C104        H109   1.083       .  S
C105        C329   1.488       .  S
C105        C106   1.407       .  A
C106        C107   1.404       .  A
C106        H110   1.084       .  S
C107        C589   1.486       .  S
C107        C108   1.404       .  A
C108        H111   1.084       .  S
C112        C738   1.479       .  S
C112        C113   1.402       .  A
C112        C117   1.400       .  A
C113        C114   1.406       .  A
C113        H118   1.082       .  S
C114        C338   1.496       .  S
C114        C115   1.412       .  A
C115        C116   1.408       .  A
C115        H119   1.082       .  S
C116        C498   1.489       .  S
C116        C117   1.404       .  A
C117        H120   1.084       .  S
C121        C638   1.481       .  S
C121        C122   1.406       .  A
C121        C126   1.399       .  A
C122        C123   1.409       .  A
C122        H127   1.082       .  S
C123        C289   1.496       .  S
C123        C124   1.411       .  A
C124        C125   1.406   1_655  A
C124        H128   1.083   1_655  S
C125        C389   1.481       .  S
C125        C126   1.400   1_455  A
C126        H129   1.085       .  S
C130        C509   1.486       .  S
C130        C131   1.408       .  A
C130        C135   1.403       .  A
C131        C132   1.407   1_455  A
C131        H136   1.085   1_455  S
C132        C298   1.481       .  S
C132        C133   1.406       .  A
C133        C134   1.407   1_655  A
C133        H137   1.083       .  S
C134        C269   1.489       .  S
C134        C135   1.404       .  A
C135        H138   1.083       .  S
C139        C529   1.478       .  S
C139        C140   1.403       .  A
C139        C144   1.404       .  A
C140        C141   1.403   1_556  A
C140        H145   1.084       .  S
C141        C238   1.482       .  S
C141        C142   1.403       .  A
C142        C143   1.403   1_554  A
C142        H146   1.085       .  S
C143        C249   1.477       .  S
C143        C144   1.404       .  A
C144        H147   1.084       .  S
C148        C649   1.482       .  S
C148        C149   1.404       .  A
C148        C153   1.407       .  A
C149        C150   1.401   1_554  A
C149        H154   1.085       .  S
C150        C409   1.471       .  S
C150        C151   1.397       .  A
C151        C152   1.399   1_556  A
C151        H155   1.084       .  S
C152        C258   1.475       .  S
C152        C153   1.402       .  A
C153        H156   1.083       .  S
O157        V165   1.893       .  S
O157        C167   1.262       .  A
O158        V165   1.893       .  S
O158        C168   1.263       .  A
O159        V165   1.895       .  S
O159        C169   1.264       .  A
O160        V165   1.900       .  S
O160        C170   1.266       .  A
O161        V166   1.900       .  S
O161        C170   1.265       .  A
O162        V166   1.907       .  S
O162        C169   1.267       .  A
O163        V166   1.905       .  S
O163        C168   1.266       .  A
O164        V166   1.903       .  S
O164        C167   1.265       .  A
V165        V166   2.086       .  T
C167        C209   1.470       .  S
C168        C189   1.478       .  S
C169        C309   1.485       .  S
C170        C358   1.485       .  S
O171        V179   1.905       .  S
O171        C181   1.266       .  A
O172        V179   1.903       .  S
O172        C182   1.266       .  A
O173        V179   1.894   1_655  S
O173        C183   1.263       .  A
O174        V179   1.895       .  S
O174        C184   1.264       .  A
O175        V180   1.900       .  S
O175        C184   1.265       .  A
O176        V180   1.902   1_655  S
O176        C183   1.264       .  A
O177        V180   1.906       .  S
O177        C182   1.267       .  A
O178        V180   1.902       .  S
O178        C181   1.265       .  A
V179        V180   2.085       .  T
C181        C229   1.487       .  S
C182        C278   1.489       .  S
C183        C218   1.468       .  S
C184        C198   1.481       .  S
C185        C186   1.405       .  A
C185        C190   1.400       .  A
C185        H195   1.082       .  S
C186        C191   1.481       .  S
C186        C187   1.405       .  A
C187        C188   1.396       .  A
C187        F192   1.358       .  S
C188        C189   1.405       .  A
C188        H193   1.082       .  S
C189        C190   1.407       .  A
C190        F194   1.357       .  S
C191        C196   1.405       .  A
C191        C200   1.404       .  A
C196        C197   1.397       .  A
C196        F201   1.358       .  S
C197        C198   1.407       .  A
C197        H202   1.082       .  S
C198        C199   1.408       .  A
C199        C200   1.398       .  A
C199        F203   1.357       .  S
C200        H204   1.082       .  S
C205        C206   1.407       .  A
C205        C210   1.396       .  A
C205        H215   1.083       .  S
C206        C211   1.492       .  S
C206        C207   1.413       .  A
C207        C208   1.398       .  A
C207        F212   1.357       .  S
C208        C209   1.400       .  A
C208        H213   1.085       .  S
C209        C210   1.403       .  A
C210        F214   1.358       .  S
C211        C216   1.414       .  A
C211        C220   1.407       .  A
C216        C217   1.400       .  A
C216        F221   1.357       .  S
C217        C218   1.400       .  A
C217        H222   1.085       .  S
C218        C219   1.401       .  A
C219        C220   1.395       .  A
C219        F223   1.358       .  S
C220        H224   1.083       .  S
C225        C226   1.405       .  A
C225        C230   1.400       .  A
C225        H235   1.084       .  S
C226        C231   1.488       .  S
C226        C227   1.407       .  A
C227        C228   1.400       .  A
C227        F232   1.358       .  S
C228        C229   1.407       .  A
C228        H233   1.083       .  S
C229        C230   1.410       .  A
C230        F234   1.357       .  S
C231        C236   1.408       .  A
C231        C240   1.406   1_455  A
C236        C237   1.399       .  A
C236        F241   1.357       .  S
C237        C238   1.404       .  A
C237        H242   1.082       .  S
C238        C239   1.407   1_455  A
C239        C240   1.399       .  A
C239        F243   1.358       .  S
C240        H244   1.082       .  S
C245        C246   1.401   1_554  A
C245        C250   1.397       .  A
C245        H255   1.083       .  S
C246        C251   1.469       .  S
C246        C247   1.403   1_655  A
C247        C248   1.398       .  A
C247        F252   1.358       .  S
C248        C249   1.404       .  A
C248        H253   1.083       .  S
C249        C250   1.407   1_456  A
C250        F254   1.357       .  S
C251        C256   1.401       .  A
C251        C260   1.403   1_656  A
C256        C257   1.394       .  A
C256        F261   1.357       .  S
C257        C258   1.404   1_556  A
C257        H262   1.084       .  S
C258        C259   1.406   1_655  A
C259        C260   1.398       .  A
C259        F263   1.358       .  S
C260        H264   1.084       .  S
C265        C266   1.408       .  A
C265        C270   1.402       .  A
C265        H275   1.082       .  S
C266        C271   1.492       .  S
C266        C267   1.408   1_455  A
C267        C268   1.399       .  A
C267        F272   1.357       .  S
C268        C269   1.406   1_655  A
C268        H273   1.083       .  S
C269        C270   1.407       .  A
C270        F274   1.357       .  S
C271        C276   1.410       .  A
C271        C280   1.405       .  A
C276        C277   1.402       .  A
C276        F281   1.357       .  S
C277        C278   1.407       .  A
C277        H282   1.083       .  S
C278        C279   1.410       .  A
C279        C280   1.400       .  A
C279        F283   1.357       .  S
C280        H284   1.083       .  S
C285        C286   1.405       .  A
C285        C290   1.401       .  A
C285        H295   1.083       .  S
C286        C291   1.492   1_565  S
C286        C287   1.408   1_655  A
C287        C288   1.401       .  A
C287        F292   1.358       .  S
C288        C289   1.409   1_455  A
C288        H293   1.083       .  S
C289        C290   1.410       .  A
C290        F294   1.357       .  S
C291        C296   1.411       .  A
C291        C300   1.407   1_655  A
C296        C297   1.404       .  A
C296        F301   1.358       .  S
C297        C298   1.404       .  A
C297        H302   1.083       .  S
C298        C299   1.403   1_655  A
C299        C300   1.400       .  A
C299        F303   1.357       .  S
C300        H304   1.083       .  S
C305        C306   1.401       .  A
C305        C310   1.398       .  A
C305        H315   1.083       .  S
C306        C311   1.481       .  S
C306        C307   1.406       .  A
C307        C308   1.400       .  A
C307        F312   1.358       .  S
C308        C309   1.407       .  A
C308        H313   1.083       .  S
C309        C310   1.411       .  A
C310        F314   1.357       .  S
C311        C316   1.407       .  A
C311        C320   1.402       .  A
C316        C317   1.400       .  A
C316        F321   1.357       .  S
C317        C318   1.406       .  A
C317        H322   1.083       .  S
C318        C319   1.408       .  A
C319        C320   1.397       .  A
C319        F323   1.357       .  S
C320        H324   1.084       .  S
C325        C326   1.403       .  A
C325        C330   1.402       .  A
C325        H335   1.082       .  S
C326        C331   1.475       .  S
C326        C327   1.401       .  A
C327        C328   1.395       .  A
C327        F332   1.357       .  S
C328        C329   1.406       .  A
C328        H333   1.082       .  S
C329        C330   1.411       .  A
C330        F334   1.357       .  S
C331        C336   1.402       .  A
C331        C340   1.399       .  A
C336        C337   1.398       .  A
C336        F341   1.357       .  S
C337        C338   1.409       .  A
C337        H342   1.082       .  S
C338        C339   1.415       .  A
C339        C340   1.399       .  A
C339        F343   1.357       .  S
C340        H344   1.083       .  S
C345        C346   1.405       .  A
C345        C350   1.399       .  A
C345        H355   1.082       .  S
C346        C351   1.487       .  S
C346        C347   1.408       .  A
C347        C348   1.400       .  A
C347        F352   1.357       .  S
C348        C349   1.404       .  A
C348        H353   1.083       .  S
C349        C350   1.408       .  A
C350        F354   1.358       .  S
C351        C356   1.407       .  A
C351        C360   1.405       .  A
C356        C357   1.398       .  A
C356        F361   1.357       .  S
C357        C358   1.406       .  A
C357        H362   1.083       .  S
C358        C359   1.410       .  A
C359        C360   1.399       .  A
C359        F363   1.357       .  S
C360        H364   1.083       .  S
C365        C366   1.403       .  A
C365        C370   1.399       .  A
C365        H375   1.083       .  S
C366        C371   1.483   1_565  S
C366        C367   1.407   1_556  A
C367        C368   1.402       .  A
C367        F372   1.357       .  S
C368        C369   1.406   1_554  A
C368        H373   1.083       .  S
C369        C370   1.408       .  A
C370        F374   1.357       .  S
C371        C376   1.406   1_556  A
C371        C380   1.405       .  A
C376        C377   1.399       .  A
C376        F381   1.357       .  S
C377        C378   1.403   1_554  A
C377        H382   1.084       .  S
C378        C379   1.406       .  A
C379        C380   1.401       .  A
C379        F383   1.357       .  S
C380        H384   1.083       .  S
C385        C386   1.403       .  A
C385        C390   1.396       .  A
C385        H395   1.084       .  S
C386        C391   1.479       .  S
C386        C387   1.407   1_455  A
C387        C388   1.398       .  A
C387        F392   1.358       .  S
C388        C389   1.404   1_655  A
C388        H393   1.084       .  S
C389        C390   1.408       .  A
C390        F394   1.358       .  S
C391        C396   1.405       .  A
C391        C400   1.403       .  A
C396        C397   1.395       .  A
C396        F401   1.358       .  S
C397        C398   1.406       .  A
C397        H402   1.083       .  S
C398        C399   1.410       .  A
C399        C400   1.398       .  A
C399        F403   1.357       .  S
C400        H404   1.083       .  S
C405        C406   1.402       .  A
C405        C410   1.393       .  A
C405        H415   1.084       .  S
C406        C411   1.471       .  S
C406        C407   1.405   1_655  A
C407        C408   1.395       .  A
C407        F412   1.358       .  S
C408        C409   1.404   1_455  A
C408        H413   1.084       .  S
C409        C410   1.404       .  A
C410        F414   1.357       .  S
C411        C416   1.404       .  A
C411        C420   1.401       .  A
C416        C417   1.396       .  A
C416        F421   1.358       .  S
C417        C418   1.407       .  A
C417        H422   1.083       .  S
C418        C419   1.408       .  A
C419        C420   1.392       .  A
C419        F423   1.357       .  S
C420        H424   1.083       .  S
C425        C426   1.403       .  A
C425        C430   1.398       .  A
C425        H435   1.084       .  S
C426        C431   1.478       .  S
C426        C427   1.404       .  A
C427        C428   1.397       .  A
C427        F432   1.357       .  S
C428        C429   1.407       .  A
C428        H433   1.084       .  S
C429        C430   1.410       .  A
C430        F434   1.357       .  S
C431        C436   1.405       .  A
C431        C440   1.402       .  A
C436        C437   1.399       .  A
C436        F441   1.358       .  S
C437        C438   1.407       .  A
C437        H442   1.082       .  S
C438        C439   1.410       .  A
C439        C440   1.396       .  A
C439        F443   1.357       .  S
C440        H444   1.083       .  S
C445        C446   1.403       .  A
C445        C450   1.398       .  A
C445        H455   1.084       .  S
C446        C451   1.479       .  S
C446        C447   1.405       .  A
C447        C448   1.398       .  A
C447        F452   1.358       .  S
C448        C449   1.405       .  A
C448        H453   1.084       .  S
C449        C450   1.408       .  A
C450        F454   1.357       .  S
C451        C456   1.405       .  A
C451        C460   1.404       .  A
C456        C457   1.397       .  A
C456        F461   1.358       .  S
C457        C458   1.405       .  A
C457        H462   1.083       .  S
C458        C459   1.406       .  A
C459        C460   1.399       .  A
C459        F463   1.357       .  S
C460        H464   1.083       .  S
C465        C466   1.402       .  A
C465        C470   1.399       .  A
C465        H475   1.084       .  S
C466        C471   1.478       .  S
C466        C467   1.404       .  A
C467        C468   1.398       .  A
C467        F472   1.358       .  S
C468        C469   1.406       .  A
C468        H473   1.083       .  S
C469        C470   1.412       .  A
C470        F474   1.357       .  S
C471        C476   1.406       .  A
C471        C480   1.403       .  A
C476        C477   1.398       .  A
C476        F481   1.357       .  S
C477        C478   1.402       .  A
C477        H482   1.083       .  S
C478        C479   1.407       .  A
C479        C480   1.399       .  A
C479        F483   1.358       .  S
C480        H484   1.083       .  S
C485        C486   1.405       .  A
C485        C490   1.400       .  A
C485        H495   1.084       .  S
C486        C491   1.485       .  S
C486        C487   1.405       .  A
C487        C488   1.399       .  A
C487        F492   1.357       .  S
C488        C489   1.407       .  A
C488        H493   1.083       .  S
C489        C490   1.410       .  A
C490        F494   1.357       .  S
C491        C496   1.406       .  A
C491        C500   1.405       .  A
C496        C497   1.399       .  A
C496        F501   1.358       .  S
C497        C498   1.407       .  A
C497        H502   1.081       .  S
C498        C499   1.409       .  A
C499        C500   1.400       .  A
C499        F503   1.357       .  S
C500        H504   1.081       .  S
C505        C506   1.406       .  A
C505        C510   1.401       .  A
C505        H515   1.087       .  S
C506        C511   1.487       .  S
C506        C507   1.408   1_455  A
C507        C508   1.398       .  A
C507        F512   1.358       .  S
C508        C509   1.405   1_655  A
C508        H513   1.088       .  S
C509        C510   1.407       .  A
C510        F514   1.357       .  S
C511        C516   1.407       .  A
C511        C520   1.405       .  A
C516        C517   1.399       .  A
C516        F521   1.357       .  S
C517        C518   1.406       .  A
C517        H522   1.083       .  S
C518        C519   1.410       .  A
C519        C520   1.399       .  A
C519        F523   1.358       .  S
C520        H524   1.085       .  S
C525        C526   1.406   1_655  A
C525        C530   1.397       .  A
C525        H535   1.083       .  S
C526        C531   1.484       .  S
C526        C527   1.407       .  A
C527        C528   1.399       .  A
C527        F532   1.357       .  S
C528        C529   1.404       .  A
C528        H533   1.083       .  S
C529        C530   1.405   1_455  A
C530        F534   1.358       .  S
C531        C536   1.408       .  A
C531        C540   1.402   1_455  A
C536        C537   1.402       .  A
C536        F541   1.358       .  S
C537        C538   1.407       .  A
C537        H542   1.083       .  S
C538        C539   1.410   1_455  A
C539        C540   1.395       .  A
C539        F543   1.357       .  S
C540        H544   1.084       .  S
C545        C546   1.401       .  A
C545        C550   1.394       .  A
C545        H555   1.081       .  S
C546        C551   1.478       .  S
C546        C547   1.406       .  A
C547        C548   1.400       .  A
C547        F552   1.358       .  S
C548        C549   1.407       .  A
C548        H553   1.081       .  S
C549        C550   1.410       .  A
C550        F554   1.357       .  S
C551        C556   1.404       .  A
C551        C560   1.403       .  A
C556        C557   1.398       .  A
C556        F561   1.358       .  S
C557        C558   1.409       .  A
C557        H562   1.084       .  S
C558        C559   1.407       .  A
C559        C560   1.396       .  A
C559        F563   1.357       .  S
C560        H564   1.085       .  S
C565        C566   1.404       .  A
C565        C570   1.400       .  A
C565        H575   1.084       .  S
C566        C571   1.477       .  S
C566        C567   1.403       .  A
C567        C568   1.398       .  A
C567        F572   1.357       .  S
C568        C569   1.406       .  A
C568        H573   1.084       .  S
C569        C570   1.406       .  A
C570        F574   1.357       .  S
C571        C576   1.403       .  A
C571        C580   1.404       .  A
C576        C577   1.396       .  A
C576        F581   1.357       .  S
C577        C578   1.405       .  A
C577        H582   1.084       .  S
C578        C579   1.408       .  A
C579        C580   1.402       .  A
C579        F583   1.357       .  S
C580        H584   1.084       .  S
C585        C586   1.404       .  A
C585        C590   1.395       .  A
C585        H595   1.084       .  S
C586        C591   1.486       .  S
C586        C587   1.408       .  A
C587        C588   1.401       .  A
C587        F592   1.358       .  S
C588        C589   1.407       .  A
C588        H593   1.085       .  S
C589        C590   1.407       .  A
C590        F594   1.357       .  S
C591        C596   1.407       .  A
C591        C600   1.405       .  A
C596        C597   1.395       .  A
C596        F601   1.357       .  S
C597        C598   1.404       .  A
C597        H602   1.082       .  S
C598        C599   1.411       .  A
C599        C600   1.401       .  A
C599        F603   1.358       .  S
C600        H604   1.083       .  S
C605        C606   1.404       .  A
C605        C610   1.400       .  A
C605        H615   1.081       .  S
C606        C611   1.481       .  S
C606        C607   1.405       .  A
C607        C608   1.398       .  A
C607        F612   1.358       .  S
C608        C609   1.408       .  A
C608        H613   1.082       .  S
C609        C610   1.409       .  A
C610        F614   1.357       .  S
C611        C616   1.406       .  A
C611        C620   1.405       .  A
C616        C617   1.400       .  A
C616        F621   1.357       .  S
C617        C618   1.404       .  A
C617        H622   1.079       .  S
C618        C619   1.406       .  A
C619        C620   1.400       .  A
C619        F623   1.358       .  S
C620        H624   1.079       .  S
C625        C626   1.402       .  A
C625        C630   1.396       .  A
C625        H635   1.083       .  S
C626        C631   1.478       .  S
C626        C627   1.405       .  A
C627        C628   1.398       .  A
C627        F632   1.357       .  S
C628        C629   1.407       .  A
C628        H633   1.082       .  S
C629        C630   1.410       .  A
C630        F634   1.357   1_655  S
C631        C636   1.405   1_655  A
C631        C640   1.404       .  A
C636        C637   1.397       .  A
C636        F641   1.358       .  S
C637        C638   1.406   1_455  A
C637        H642   1.083       .  S
C638        C639   1.406       .  A
C639        C640   1.397       .  A
C639        F643   1.357       .  S
C640        H644   1.083       .  S
C645        C646   1.403   1_455  A
C645        C650   1.395       .  A
C645        H655   1.082       .  S
C646        C651   1.480       .  S
C646        C647   1.407       .  A
C647        C648   1.398       .  A
C647        F652   1.358       .  S
C648        C649   1.407       .  A
C648        H653   1.082       .  S
C649        C650   1.407   1_655  A
C650        F654   1.357       .  S
C651        C656   1.406       .  A
C651        C660   1.403       .  A
C656        C657   1.397       .  A
C656        F661   1.358       .  S
C657        C658   1.405       .  A
C657        H662   1.083       .  S
C658        C659   1.410       .  A
C659        C660   1.397       .  A
C659        F663   1.357   1_655  S
C660        H664   1.083       .  S
C665        C666   1.402       .  A
C665        C670   1.396       .  A
C665        H675   1.084       .  S
C666        C671   1.475       .  S
C666        C667   1.404       .  A
C667        C668   1.398       .  A
C667        F672   1.358       .  S
C668        C669   1.407       .  A
C668        H673   1.083       .  S
C669        C670   1.409       .  A
C670        F674   1.357       .  S
C671        C676   1.404       .  A
C671        C680   1.401       .  A
C676        C677   1.399       .  A
C676        F681   1.358       .  S
C677        C678   1.407       .  A
C677        H682   1.082       .  S
C678        C679   1.409       .  A
C679        C680   1.394       .  A
C679        F683   1.357       .  S
C680        H684   1.083       .  S
C685        C686   1.401       .  A
C685        C690   1.395       .  A
C685        H695   1.083       .  S
C686        C691   1.476       .  S
C686        C687   1.404       .  A
C687        C688   1.401       .  A
C687        F692   1.358       .  S
C688        C689   1.409       .  A
C688        H693   1.083       .  S
C689        C690   1.409       .  A
C690        F694   1.357       .  S
C691        C696   1.404       .  A
C691        C700   1.402       .  A
C696        C697   1.395       .  A
C696        F701   1.358       .  S
C697        C698   1.406       .  A
C697        H702   1.084       .  S
C698        C699   1.411       .  A
C699        C700   1.399       .  A
C699        F703   1.357       .  S
C700        H704   1.084       .  S
C705        C706   1.404       .  A
C705        C710   1.398       .  A
C705        H715   1.082       .  S
C706        C711   1.482       .  S
C706        C707   1.405       .  A
C707        C708   1.398       .  A
C707        F712   1.358       .  S
C708        C709   1.407       .  A
C708        H713   1.082       .  S
C709        C710   1.409       .  A
C710        F714   1.357       .  S
C711        C716   1.407       .  A
C711        C720   1.404       .  A
C716        C717   1.399       .  A
C716        F721   1.357       .  S
C717        C718   1.402       .  A
C717        H722   1.084       .  S
C718        C719   1.406       .  A
C719        C720   1.398       .  A
C719        F723   1.358       .  S
C720        H724   1.084       .  S
C725        C726   1.403       .  A
C725        C730   1.395       .  A
C725        H735   1.084       .  S
C726        C731   1.483       .  S
C726        C727   1.408       .  A
C727        C728   1.398       .  A
C727        F732   1.358       .  S
C728        C729   1.405       .  A
C728        H733   1.084       .  S
C729        C730   1.409       .  A
C730        F734   1.357       .  S
C731        C736   1.409       .  A
C731        C740   1.404       .  A
C736        C737   1.397       .  A
C736        F741   1.358       .  S
C737        C738   1.403       .  A
C737        H742   1.084       .  S
C738        C739   1.406       .  A
C739        C740   1.397       .  A
C739        F743   1.358       .  S
C740        H744   1.083       .  S
