geometry optimzed in LAMMPS
_audit_creation_date              2020-12-01 
_audit_creation_method            'lammps2cif' 
_symmetry_space_group_name_H-M    'P1' 
_symmetry_Int_Tables_number       1 
_symmetry_cell_setting            triclinic 
loop_ 
_symmetry_equiv_pos_as_xyz 
  x,y,z 
_cell_length_a                    41.83322891 
_cell_length_b                    41.342522133969375 
_cell_length_c                    46.61979028502296 
_cell_angle_alpha                 90.1763792200711 
_cell_angle_beta                  90.1389725103449 
_cell_angle_gamma                 90.28674860794536 
loop_ 
_atom_site_label 
_atom_site_type_symbol 
_atom_site_fract_x 
_atom_site_fract_y 
_atom_site_fract_z 
_atom_site_charge 
N1          N  0.05056585  0.49717274  0.07571978    -0.27400
N2          N  0.06581915  0.49942757  0.10056420    -0.35300
C3          C  0.09748705  0.50145122  0.09553622     0.00900
C4          C  0.10235137  0.50015748  0.06617180     0.07000
C5          C  0.07213446  0.49716144  0.05433124    -0.06100
H6          H  0.11564038  0.50344140  0.11202210     0.07600
H7          H  0.06622357  0.49573139  0.03175413     0.08800
Cu8        Cu  0.04282128  0.99899788  0.14024950     0.44200
Cu9        Cu  0.50096424  0.49611173  0.07155016     0.42000
Cu10       Cu  0.45615694  0.00206602  0.13740479     0.43900
N11         N  0.01372220  0.99872026  0.17654708    -0.34800
N12         N  0.48224227  0.00152628  0.17540468    -0.29000
C13         C  0.47055687  0.00189222  0.20228120    -0.05100
C14         C  0.99577522  0.99847833  0.22118321     0.07100
C15         C  0.02278294  0.99642060  0.20422766     0.00900
H16         H  0.44546586  0.00362961  0.20762368     0.08500
H17         H  0.04723169  0.99389582  0.21147590     0.07600
N18         N  0.43488169  0.49935854  0.09711420    -0.36200
N19         N  0.45121350  0.49779450  0.07288857    -0.28400
C20         C  0.43052919  0.49745933  0.05067500    -0.03700
C21         C  0.39978367  0.49832908  0.06153225     0.05000
C22         C  0.40342303  0.49953601  0.09100012     0.03000
H23         H  0.43734020  0.49647249  0.02831676     0.08100
H24         H  0.38458663  0.50094362  0.10681608     0.07000
N25         N  0.98364768  0.04403150  0.39899803    -0.27400
N26         N  0.97723960  0.05954717  0.37492623    -0.35300
C27         C  0.97541872  0.09144853  0.38061503     0.00900
C28         C  0.98141589  0.09605614  0.40955355     0.07000
C29         C  0.98634927  0.06550416  0.42055750    -0.06100
H30         H  0.97175878  0.11001294  0.36465183     0.07600
H31         H  0.99244667  0.05941381  0.44244534     0.08800
Cu32       Cu  0.97610339  0.03663179  0.33514117     0.44200
Cu33       Cu  0.99088341  0.49475456  0.40121708     0.42000
Cu34       Cu  0.00344143  0.45265163  0.33433956     0.43900
N35         N  0.98529287  0.01031942  0.29796156    -0.34800
N36         N  0.99722818  0.48071436  0.29767289    -0.29000
C37         C  0.00315527  0.47207271  0.27031064    -0.05100
C38         C  0.99403080  0.49720620  0.25264102     0.07100
C39         C  0.98265391  0.02094419  0.27079580     0.00900
H40         H  0.01282417  0.44899816  0.26374869     0.08500
H41         H  0.97392581  0.04455829  0.26477198     0.07600
N42         N  0.00317699  0.42985578  0.37415696    -0.36200
N43         N  0.99807445  0.44548941  0.39848206    -0.28400
C44         C  0.99736638  0.42422208  0.42019937    -0.03700
C45         C  0.00260476  0.39366644  0.40915154     0.05000
C46         C  0.00599728  0.39807418  0.37984009     0.03000
H47         H  0.99293311  0.43050472  0.44237303     0.08100
H48         H  0.00916158  0.37946962  0.36374304     0.07000
C49         C  0.50119803  0.27450442  0.50338007     0.02200
C50         C  0.49599751  0.27438941  0.47330572     0.02100
C51         C  0.49168522  0.24488361  0.45885045    -0.18400
C52         C  0.49188216  0.21545071  0.47367611     0.02200
C53         C  0.49727403  0.21550911  0.50359292     0.02100
C54         C  0.50229472  0.24488475  0.51801413    -0.18400
H55         H  0.50705487  0.24465294  0.54087162     0.04200
H56         H  0.98821902  0.24482295  0.43580139     0.04200
N57         N  0.44908765  0.50804504  0.89794706    -0.27400
N58         N  0.43431588  0.51286284  0.87321950    -0.35300
C59         C  0.40256628  0.51368770  0.87780563     0.00900
C60         C  0.39715175  0.50909510  0.90679353     0.07000
C61         C  0.42712845  0.50534792  0.91886009    -0.06100
H62         H  0.38472770  0.51670170  0.86120107     0.07600
H63         H  0.43257963  0.50112679  0.94123179     0.08800
Cu64       Cu  0.45788057  0.51490280  0.83406630     0.44200
Cu65       Cu  0.49842537  0.50475023  0.90207910     0.42000
Cu66       Cu  0.03989521  0.48678917  0.83635212     0.43900
N67         N  0.48511255  0.50556401  0.79779380    -0.34800
N68         N  0.01393942  0.49258490  0.79875185    -0.29000
C69         C  0.02385108  0.48660137  0.77183259    -0.05100
C70         C  0.50042506  0.49693540  0.75309844     0.07100
C71         C  0.47628480  0.50898172  0.77019456     0.00900
H72         H  0.04680451  0.47640165  0.76630261     0.08500
H73         H  0.45362547  0.51869621  0.76313359     0.07600
N74         N  0.06274492  0.49184061  0.87569133    -0.36200
N75         N  0.04770523  0.49947630  0.89966086    -0.28400
C76         C  0.06932983  0.50292843  0.92089306    -0.03700
C77         C  0.09938389  0.49671909  0.90984407     0.05000
C78         C  0.09429813  0.49005428  0.88105277     0.03000
H79         H  0.06359662  0.50932721  0.94279914     0.08100
H80         H  0.11225921  0.48502015  0.86502107     0.07000
N81         N  0.52634833  0.44541364  0.57684520    -0.27400
N82         N  0.52518602  0.42960572  0.60142292    -0.35300
C83         C  0.52448550  0.39765065  0.59596014     0.00900
C84         C  0.52565803  0.39309089  0.56654703     0.07000
C85         C  0.52666485  0.42394175  0.55510346    -0.06100
H86         H  0.52196390  0.37909873  0.61216777     0.07600
H87         H  0.52564871  0.43033291  0.53265421     0.08800
Cu88       Cu  0.52065900  0.45230940  0.64098010     0.44200
Cu89       Cu  0.52240503  0.49523997  0.57397490     0.42000
Cu90       Cu  0.49202285  0.03462647  0.63810691     0.43900
N91         N  0.50974899  0.47958345  0.67707819    -0.34800
N92         N  0.49701569  0.00877072  0.67590714    -0.29000
C93         C  0.49111781  0.01915166  0.70275570    -0.05100
C94         C  0.50119653  0.49560215  0.72164844     0.07100
C95         C  0.51302105  0.47093601  0.70472373     0.00900
H96         H  0.48136798  0.04257697  0.70813730     0.08500
H97         H  0.52285987  0.44820963  0.71193414     0.07600
N98         N  0.49880377  0.05794807  0.59922810    -0.36200
N99         N  0.51135305  0.04398230  0.57632679    -0.28400
C100        C  0.51475741  0.06618983  0.55551789    -0.03700
C101        C  0.50371209  0.09541546  0.56584223     0.05000
C102        C  0.49358034  0.08934377  0.59349076     0.03000
H103        H  0.52436448  0.06137725  0.53441391     0.08100
H104        H  0.48386164  0.10663530  0.60855858     0.07000
C105        C  0.27830129  0.50437763  0.96992006     0.02200
C106        C  0.27932402  0.50451143  0.00031346     0.02100
C107        C  0.25050201  0.50376888  0.01576940    -0.18400
C108        C  0.22072425  0.50331238  0.00172640     0.02200
C109        C  0.21977719  0.50480611  0.97133805     0.02100
C110        C  0.24858418  0.50513605  0.95591790    -0.18400
H111        H  0.24785708  0.50553462  0.93266893     0.04200
H112        H  0.25126866  0.50309644  0.03900802     0.04200
C113        C  0.13032706  0.49841401  0.92531557    -0.06200
C114        C  0.13669515  0.02539216  0.94284177    -0.17400
C115        C  0.16605065  0.02899134  0.95709313     0.11000
C116        C  0.18923343  0.50432846  0.95490359    -0.06200
C117        C  0.18314306  0.47779459  0.93681242    -0.17400
C118        C  0.15397837  0.47434003  0.92237073     0.11000
S119        S  0.17291850  0.06639326  0.97621426    -0.32400
S120        S  0.14787522  0.43767809  0.90201686    -0.32400
H121        H  0.11544205  0.43414478  0.90931221     0.29000
H122        H  0.20644411  0.06603045  0.97442671     0.28600
H123        H  0.11903629  0.04437522  0.94468983     0.19600
H124        H  0.20086106  0.45887050  0.93485163     0.19600
C125        C  0.36609578  0.50777396  0.92181719    -0.06200
C126        C  0.35863571  0.48025914  0.93808460    -0.17400
C127        C  0.32944752  0.47757413  0.95258877     0.11000
C128        C  0.30781119  0.50375129  0.95218140    -0.06200
C129        C  0.31474663  0.03067051  0.93496279    -0.17400
C130        C  0.34364323  0.03308940  0.92002893     0.11000
S131        S  0.32070398  0.43954378  0.96983145    -0.32400
S132        S  0.35112839  0.06986398  0.90043426    -0.32400
H133        H  0.38394552  0.07150376  0.90692954     0.29000
H134        H  0.28723855  0.44226198  0.96895188     0.29000
H135        H  0.37534620  0.46032484  0.93885981     0.19600
H136        H  0.29806432  0.05063085  0.93416030     0.19600
C137        C  0.49827633  0.18517506  0.52030137    -0.06200
C138        C  0.02818075  0.17149506  0.52616571    -0.17400
C139        C  0.03070480  0.14229249  0.54103536     0.11000
C140        C  0.50271022  0.12653702  0.55063468    -0.06200
C141        C  0.47284161  0.14051386  0.54526929    -0.17400
C142        C  0.47028286  0.16958891  0.53017362     0.11000
S143        S  0.07026133  0.12665194  0.54730533    -0.32400
S144        S  0.43064757  0.18504884  0.52394125    -0.32400
H145        H  0.43922359  0.21782687  0.52218972     0.29000
H146        H  0.06337929  0.11257876  0.57401494     0.29000
H147        H  0.04971304  0.18356779  0.51884967     0.19600
H148        H  0.45131165  0.12845316  0.55261090     0.19600
C149        C  0.50695255  0.30494991  0.51980597    -0.06200
C150        C  0.03246658  0.32514903  0.51169770    -0.17400
C151        C  0.03946027  0.35371652  0.52667561     0.11000
C152        C  0.52089691  0.36233143  0.55076351    -0.06200
C153        C  0.49597533  0.34174553  0.55939320    -0.17400
C154        C  0.48846750  0.31356146  0.54405430     0.11000
S155        S  0.07308555  0.37736957  0.51451686    -0.32400
S156        S  0.45435964  0.29049840  0.55626073    -0.32400
H157        H  0.44587710  0.27740981  0.52949283     0.29000
H158        H  0.08252933  0.38798802  0.54195624     0.29000
H159        H  0.04746004  0.31834212  0.49378843     0.19600
H160        H  0.48139477  0.34830130  0.57766750     0.19600
C161        C  0.98486372  0.12707675  0.42497746    -0.06200
C162        C  0.45890577  0.14838992  0.42556348    -0.17400
C163        C  0.46013165  0.17706085  0.44166222     0.11000
C164        C  0.98824053  0.18489858  0.45720991    -0.06200
C165        C  0.01450473  0.16400358  0.45578419    -0.17400
C166        C  0.01315039  0.13531072  0.43993931     0.11000
S167        S  0.42491972  0.20216899  0.44143975    -0.32400
S168        S  0.04881955  0.11103509  0.43868779    -0.32400
H169        H  0.04456174  0.10060797  0.41018048     0.29000
H170        H  0.43083538  0.21882774  0.46718172     0.29000
H171        H  0.43720209  0.14221985  0.41399589     0.19600
H172        H  0.03659524  0.17050200  0.46654886     0.19600
C173        C  0.00144753  0.36288104  0.42518019    -0.06200
C174        C  0.47607940  0.35781670  0.44435116    -0.17400
C175        C  0.47283513  0.32871788  0.45931317     0.11000
C176        C  0.99623631  0.30451006  0.45612744    -0.06200
C177        C  0.02142304  0.30938925  0.43676975    -0.17400
C178        C  0.02441060  0.33828328  0.42144552     0.11000
S179        S  0.43768959  0.32347400  0.48110534    -0.32400
S180        S  0.05895148  0.34282281  0.39875541    -0.32400
H181        H  0.06353869  0.37591403  0.40462121     0.29000
H182        H  0.43541532  0.28978240  0.47729321     0.29000
H183        H  0.45801900  0.37629452  0.44698710     0.19600
H184        H  0.03950074  0.29089491  0.43429719     0.19600
C185        C  0.13309700  0.50119217  0.05051261    -0.06200
C186        C  0.14096797  0.47504380  0.03267222    -0.17400
C187        C  0.17001355  0.47423689  0.01776692     0.11000
C188        C  0.19113181  0.50102125  0.01936566    -0.06200
C189        C  0.18367189  0.02673741  0.03790324    -0.17400
C190        C  0.15489886  0.02724334  0.05325550     0.11000
S191        S  0.17932491  0.43757577  0.99851086    -0.32400
S192        S  0.14679711  0.06249730  0.07484712    -0.32400
H193        H  0.11366530  0.06272212  0.06969795     0.29000
H194        H  0.21274420  0.44098712  0.99978813     0.29000
H195        H  0.12474621  0.45459238  0.03103425     0.19600
H196        H  0.19989299  0.04718442  0.03958531     0.19600
C197        C  0.36943033  0.49907467  0.04528379    -0.06200
C198        C  0.36217045  0.02667973  0.02916949    -0.17400
C199        C  0.33256152  0.02984873  0.01531269     0.11000
C200        C  0.31006638  0.50419566  0.01650005    -0.06200
C201        C  0.31723623  0.47683925  0.03305200    -0.17400
C202        C  0.34667458  0.47385257  0.04712284     0.11000
S203        S  0.32442638  0.06795342  0.99808969    -0.32400
S204        S  0.35412508  0.43685515  0.06633593    -0.32400
H205        H  0.38726963  0.43633529  0.06143028     0.29000
H206        H  0.29095896  0.06625292  0.00023477     0.29000
H207        H  0.37924605  0.04645515  0.02828651     0.19600
H208        H  0.30010155  0.45713609  0.03424080     0.19600
N209        N  0.05056579  0.99717266  0.07571979    -0.27400
N210        N  0.06581907  0.99942783  0.10056425    -0.35300
C211        C  0.09748689  0.00145148  0.09553626     0.00900
C212        C  0.10235135  0.00015740  0.06617192     0.07000
C213        C  0.07213446  0.99716116  0.05433131    -0.06100
H214        H  0.11564050  0.00344196  0.11202247     0.07600
H215        H  0.06622361  0.99573083  0.03175414     0.08800
Cu216      Cu  0.04282145  0.49899727  0.14024951     0.44200
Cu217      Cu  0.50096425  0.99611175  0.07155015     0.42000
Cu218      Cu  0.45615684  0.50206576  0.13740487     0.43900
N219        N  0.01372232  0.49871985  0.17654707    -0.34800
N220        N  0.48224222  0.50152631  0.17540476    -0.29000
C221        C  0.47055680  0.50189217  0.20228133    -0.05100
C222        C  0.99577519  0.49847811  0.22118317     0.07100
C223        C  0.02278298  0.49641991  0.20422766     0.00900
H224        H  0.44546605  0.50362925  0.20762378     0.08500
H225        H  0.04723152  0.49389472  0.21147589     0.07600
N226        N  0.43488174  0.99935876  0.09711417    -0.36200
N227        N  0.45121353  0.99779464  0.07288854    -0.28400
C228        C  0.43052922  0.99745944  0.05067497    -0.03700
C229        C  0.39978370  0.99832924  0.06153224     0.05000
C230        C  0.40342308  0.99953624  0.09100011     0.03000
H231        H  0.43734018  0.99647253  0.02831681     0.08100
H232        H  0.38458671  0.00094389  0.10681607     0.07000
N233        N  0.98364795  0.54403158  0.39899795    -0.27400
N234        N  0.97723995  0.55954731  0.37492612    -0.35300
C235        C  0.97541922  0.59144868  0.38061494     0.00900
C236        C  0.98141640  0.59605621  0.40955351     0.07000
C237        C  0.98634959  0.56550421  0.42055735    -0.06100
H238        H  0.97175936  0.61001305  0.36465182     0.07600
H239        H  0.99244701  0.55941369  0.44244560     0.08800
Cu240      Cu  0.97610354  0.53663192  0.33514107     0.44200
Cu241      Cu  0.99088338  0.99475451  0.40121715     0.42000
Cu242      Cu  0.00344190  0.95265175  0.33433956     0.43900
N243        N  0.98529280  0.51031935  0.29796150    -0.34800
N244        N  0.99722849  0.98071449  0.29767289    -0.29000
C245        C  0.00315557  0.97207299  0.27031066    -0.05100
C246        C  0.99403089  0.99720637  0.25264106     0.07100
C247        C  0.98265396  0.52094411  0.27079571     0.00900
H248        H  0.01282474  0.94899820  0.26374857     0.08500
H249        H  0.97392608  0.54455829  0.26477185     0.07600
N250        N  0.00317740  0.92985581  0.37415691    -0.36200
N251        N  0.99807470  0.94548940  0.39848209    -0.28400
C252        C  0.99736668  0.92422202  0.42019923    -0.03700
C253        C  0.00260518  0.89366644  0.40915151     0.05000
C254        C  0.00599777  0.89807423  0.37984002     0.03000
H255        H  0.99293319  0.93050478  0.44237348     0.08100
H256        H  0.00916219  0.87946968  0.36374294     0.07000
C257        C  0.50119809  0.77450447  0.50337995     0.02200
C258        C  0.49599741  0.77438943  0.47330561     0.02100
C259        C  0.49168507  0.74488362  0.45885040    -0.18400
C260        C  0.49188213  0.71545073  0.47367605     0.02200
C261        C  0.49727416  0.71550915  0.50359286     0.02100
C262        C  0.50229487  0.74488481  0.51801399    -0.18400
H263        H  0.50705515  0.74465303  0.54087165     0.04200
H264        H  0.98821982  0.74482299  0.43580141     0.04200
N265        N  0.44908762  0.00804493  0.89794705    -0.27400
N266        N  0.43431580  0.01286256  0.87321947    -0.35300
C267        C  0.40256620  0.01368732  0.87780561     0.00900
C268        C  0.39715169  0.00909483  0.90679354     0.07000
C269        C  0.42712842  0.00534783  0.91886007    -0.06100
H270        H  0.38472763  0.01670118  0.86120105     0.07600
H271        H  0.43257966  0.00112681  0.94123192     0.08800
Cu272      Cu  0.45788042  0.01490248  0.83406626     0.44200
Cu273      Cu  0.49842539  0.00475034  0.90207900     0.42000
Cu274      Cu  0.03989516  0.98678865  0.83635244     0.43900
N275        N  0.48511234  0.00556375  0.79779374    -0.34800
N276        N  0.01393961  0.99258464  0.79875208    -0.29000
C277        C  0.02385143  0.98660104  0.77183285    -0.05100
C278        C  0.50042472  0.99693518  0.75309834     0.07100
C279        C  0.47628437  0.00898142  0.77019446     0.00900
H280        H  0.04680461  0.97640119  0.76630303     0.08500
H281        H  0.45362550  0.01869554  0.76313370     0.07600
N282        N  0.06274478  0.99184010  0.87569168    -0.36200
N283        N  0.04770507  0.99947602  0.89966111    -0.28400
C284        C  0.06932962  0.00292819  0.92089338    -0.03700
C285        C  0.09938368  0.99671860  0.90984448     0.05000
C286        C  0.09429798  0.99005365  0.88105319     0.03000
H287        H  0.06359641  0.00932713  0.94279928     0.08100
H288        H  0.11225904  0.98501938  0.86502160     0.07000
N289        N  0.52634841  0.94541374  0.57684517    -0.27400
N290        N  0.52518607  0.92960574  0.60142278    -0.35300
C291        C  0.52448561  0.89765081  0.59595986     0.00900
C292        C  0.52565814  0.89309093  0.56654695     0.07000
C293        C  0.52666497  0.92394193  0.55510312    -0.06100
H294        H  0.52196387  0.87909821  0.61216803     0.07600
H295        H  0.52564888  0.93033276  0.53265518     0.08800
Cu296      Cu  0.52065884  0.95230934  0.64098000     0.44200
Cu297      Cu  0.52240505  0.99524005  0.57397491     0.42000
Cu298      Cu  0.49202331  0.53462664  0.63810694     0.43900
N299        N  0.50974863  0.97958324  0.67707812    -0.34800
N300        N  0.49701616  0.50877091  0.67590721    -0.29000
C301        C  0.49111829  0.51915192  0.70275579    -0.05100
C302        C  0.50119612  0.99560190  0.72164835     0.07100
C303        C  0.51302067  0.97093588  0.70472360     0.00900
H304        H  0.48136856  0.54257712  0.70813734     0.08500
H305        H  0.52285978  0.94820912  0.71193413     0.07600
N306        N  0.49880406  0.55794803  0.59922800    -0.36200
N307        N  0.51135310  0.54398225  0.57632676    -0.28400
C308        C  0.51475743  0.56618972  0.55551765    -0.03700
C309        C  0.50371220  0.59541538  0.56584204     0.05000
C310        C  0.49358057  0.58934391  0.59349071     0.03000
H311        H  0.52436413  0.56137717  0.53441417     0.08100
H312        H  0.48386236  0.60663488  0.60855800     0.07000
C313        C  0.27830122  0.00437758  0.96992012     0.02200
C314        C  0.27932403  0.00451156  0.00031349     0.02100
C315        C  0.25050205  0.00376907  0.01576950    -0.18400
C316        C  0.22072425  0.00331245  0.00172657     0.02200
C317        C  0.21977711  0.00480604  0.97133826     0.02100
C318        C  0.24858406  0.00513592  0.95591791    -0.18400
H319        H  0.24785689  0.00553436  0.93266946     0.04200
H320        H  0.25126876  0.00309673  0.03900811     0.04200
C321        C  0.13032681  0.99841360  0.92531602    -0.06200
C322        C  0.13669531  0.52539257  0.94284144    -0.17400
C323        C  0.16605085  0.52899154  0.95709289     0.11000
C324        C  0.18923330  0.00432824  0.95490386    -0.06200
C325        C  0.18314286  0.97779427  0.93681286    -0.17400
C326        C  0.15397817  0.97433960  0.92237123     0.11000
S327        S  0.17291869  0.56639335  0.97621422    -0.32400
S328        S  0.14787498  0.93767756  0.90201751    -0.32400
H329        H  0.11544183  0.93414428  0.90931291     0.29000
H330        H  0.20644430  0.56603054  0.97442663     0.28600
H331        H  0.11903682  0.54437525  0.94468951     0.19600
H332        H  0.20086096  0.95887011  0.93485209     0.19600
C333        C  0.36609569  0.00777373  0.92181718    -0.06200
C334        C  0.35863575  0.98025902  0.93808482    -0.17400
C335        C  0.32944751  0.97757408  0.95258898     0.11000
C336        C  0.30781110  0.00375110  0.95218137    -0.06200
C337        C  0.31474691  0.53067080  0.93496309    -0.17400
C338        C  0.34364343  0.53308981  0.92002922     0.11000
S339        S  0.32070410  0.93954384  0.96983192    -0.32400
S340        S  0.35112875  0.56986458  0.90043489    -0.32400
H341        H  0.38394593  0.57150406  0.90693002     0.29000
H342        H  0.28723865  0.94226189  0.96895215     0.29000
H343        H  0.37534621  0.96032496  0.93886022     0.19600
H344        H  0.29806438  0.55063159  0.93416078     0.19600
C345        C  0.49827649  0.68517508  0.52030129    -0.06200
C346        C  0.02818101  0.67149507  0.52616582    -0.17400
C347        C  0.03070508  0.64229253  0.54103542     0.11000
C348        C  0.50271035  0.62653694  0.55063447    -0.06200
C349        C  0.47284173  0.64051392  0.54526933    -0.17400
C350        C  0.47028303  0.66958904  0.53017371     0.11000
S351        S  0.07026156  0.62665186  0.54730535    -0.32400
S352        S  0.43064775  0.68504914  0.52394164    -0.32400
H353        H  0.43922389  0.71782714  0.52218998     0.29000
H354        H  0.06337954  0.61257884  0.57401504     0.29000
H355        H  0.04971364  0.68356794  0.51884969     0.19600
H356        H  0.45131195  0.62845342  0.55261102     0.19600
C357        C  0.50695259  0.80495000  0.51980580    -0.06200
C358        C  0.03246715  0.82514903  0.51169767    -0.17400
C359        C  0.03946083  0.85371651  0.52667574     0.11000
C360        C  0.52089701  0.86233155  0.55076328    -0.06200
C361        C  0.49597545  0.84174562  0.55939299    -0.17400
C362        C  0.48846757  0.81356157  0.54405413     0.11000
S363        S  0.07308608  0.87736958  0.51451691    -0.32400
S364        S  0.45435971  0.79049852  0.55626057    -0.32400
H365        H  0.44587717  0.77740991  0.52949268     0.29000
H366        H  0.08252984  0.88798816  0.54195626     0.29000
H367        H  0.04746009  0.81834236  0.49378889     0.19600
H368        H  0.48139479  0.84830146  0.57766744     0.19600
C369        C  0.98486429  0.62707679  0.42497746    -0.06200
C370        C  0.45890560  0.64838964  0.42556390    -0.17400
C371        C  0.46013145  0.67706060  0.44166255     0.11000
C372        C  0.98824112  0.68489861  0.45720993    -0.06200
C373        C  0.01450517  0.66400340  0.45578447    -0.17400
C374        C  0.01315080  0.63531052  0.43993963     0.11000
S375        S  0.42491933  0.70216847  0.44144042    -0.32400
S376        S  0.04881975  0.61103452  0.43868862    -0.32400
H377        H  0.04456233  0.60060745  0.41018125     0.29000
H378        H  0.43083538  0.71882770  0.46718207     0.29000
H379        H  0.43720169  0.64221933  0.41399652     0.19600
H380        H  0.03659567  0.67050169  0.46654935     0.19600
C381        C  0.00144798  0.86288101  0.42518011    -0.06200
C382        C  0.47607912  0.85781667  0.44435111    -0.17400
C383        C  0.47283486  0.82871781  0.45931305     0.11000
C384        C  0.99623687  0.80451010  0.45612747    -0.06200
C385        C  0.02142357  0.80938928  0.43676974    -0.17400
C386        C  0.02441108  0.83828328  0.42144548     0.11000
S387        S  0.43768927  0.82347376  0.48110511    -0.32400
S388        S  0.05895195  0.84282282  0.39875536    -0.32400
H389        H  0.06353914  0.87591405  0.40462114     0.29000
H390        H  0.43541515  0.78978215  0.47729297     0.29000
H391        H  0.45801863  0.87629448  0.44698705     0.19600
H392        H  0.03950130  0.79089492  0.43429718     0.19600
C393        C  0.13309702  0.00119212  0.05051278    -0.06200
C394        C  0.14096815  0.97504349  0.03267265    -0.17400
C395        C  0.17001382  0.97423674  0.01776737     0.11000
C396        C  0.19113186  0.00102125  0.01936590    -0.06200
C397        C  0.18367203  0.52673725  0.03790322    -0.17400
C398        C  0.15489905  0.52724322  0.05325554     0.11000
S399        S  0.17932543  0.93757554  0.99851155    -0.32400
S400        S  0.14679762  0.56249696  0.07484754    -0.32400
H401        H  0.11366578  0.56272206  0.06969854     0.29000
H402        H  0.21274470  0.94098710  0.99978890     0.29000
H403        H  0.12474687  0.95459236  0.03103487     0.19600
H404        H  0.19989332  0.54718416  0.03958546     0.19600
C405        C  0.36943034  0.99907480  0.04528381    -0.06200
C406        C  0.36217027  0.52667976  0.02916975    -0.17400
C407        C  0.33256134  0.52984874  0.01531295     0.11000
C408        C  0.31006642  0.00419584  0.01650006    -0.06200
C409        C  0.31723606  0.97683952  0.03305229    -0.17400
C410        C  0.34667446  0.97385291  0.04712314     0.11000
S411        S  0.32442595  0.56795355  0.99809026    -0.32400
S412        S  0.35412473  0.93685568  0.06633661    -0.32400
H413        H  0.38726926  0.93633551  0.06143089     0.29000
H414        H  0.29095854  0.56625286  0.00023543     0.29000
H415        H  0.37924573  0.54645530  0.02828698     0.19600
H416        H  0.30010156  0.95713680  0.03424128     0.19600
N417        N  0.55056582  0.49717236  0.07571983    -0.27400
N418        N  0.56581910  0.49942737  0.10056426    -0.35300
C419        C  0.59748703  0.50145098  0.09553630     0.00900
C420        C  0.60235134  0.50015700  0.06617185     0.07000
C421        C  0.57213446  0.49716090  0.05433134    -0.06100
H422        H  0.61564022  0.50344132  0.11202208     0.07600
H423        H  0.56622353  0.49573073  0.03175403     0.08800
Cu424      Cu  0.54282147  0.99899693  0.14024952     0.44200
Cu425      Cu  0.00096429  0.49611197  0.07155006     0.42000
Cu426      Cu  0.95615675  0.00206531  0.13740476     0.43900
N427        N  0.51372240  0.99871969  0.17654710    -0.34800
N428        N  0.98224210  0.00152611  0.17540466    -0.29000
C429        C  0.97055660  0.00189184  0.20228124    -0.05100
C430        C  0.49577533  0.99847808  0.22118320     0.07100
C431        C  0.52278297  0.99641975  0.20422764     0.00900
H432        H  0.94546606  0.00362862  0.20762361     0.08500
H433        H  0.54723202  0.99389441  0.21147599     0.07600
N434        N  0.93488173  0.49935862  0.09711406    -0.36200
N435        N  0.95121357  0.49779457  0.07288842    -0.28400
C436        C  0.93052928  0.49745932  0.05067483    -0.03700
C437        C  0.89978372  0.49832904  0.06153212     0.05000
C438        C  0.90342314  0.49953602  0.09099994     0.03000
H439        H  0.93734024  0.49647249  0.02831674     0.08100
H440        H  0.88458647  0.50094366  0.10681612     0.07000
N441        N  0.48364768  0.04403164  0.39899798    -0.27400
N442        N  0.47723964  0.05954734  0.37492612    -0.35300
C443        C  0.47541881  0.09144871  0.38061492     0.00900
C444        C  0.48141600  0.09605626  0.40955351     0.07000
C445        C  0.48634925  0.06550430  0.42055732    -0.06100
H446        H  0.47175893  0.11001305  0.36465181     0.07600
H447        H  0.49244677  0.05941376  0.44244575     0.08800
Cu448      Cu  0.47610346  0.03663190  0.33514107     0.44200
Cu449      Cu  0.49088336  0.49475457  0.40121725     0.42000
Cu450      Cu  0.50344182  0.45265176  0.33433964     0.43900
N451        N  0.48529292  0.01031931  0.29796156    -0.34800
N452        N  0.49722852  0.48071456  0.29767299    -0.29000
C453        C  0.50315562  0.47207301  0.27031073    -0.05100
C454        C  0.49403105  0.49720640  0.25264115     0.07100
C455        C  0.48265397  0.02094420  0.27079568     0.00900
H456        H  0.51282466  0.44899834  0.26374869     0.08500
H457        H  0.47392626  0.04455753  0.26477201     0.07600
N458        N  0.50317727  0.42985586  0.37415702    -0.36200
N459        N  0.49807458  0.44548944  0.39848214    -0.28400
C460        C  0.49736648  0.42422207  0.42019940    -0.03700
C461        C  0.50260496  0.39366646  0.40915157     0.05000
C462        C  0.50599759  0.39807426  0.37984013     0.03000
H463        H  0.49293308  0.43050470  0.44237313     0.08100
H464        H  0.50916200  0.37946974  0.36374307     0.07000
C465        C  0.00119801  0.27450436  0.50337996     0.02200
C466        C  0.99599733  0.27438935  0.47330561     0.02100
C467        C  0.99168497  0.24488355  0.45885039    -0.18400
C468        C  0.99188198  0.21545065  0.47367603     0.02200
C469        C  0.99727399  0.21550904  0.50359283     0.02100
C470        C  0.00229477  0.24488468  0.51801400    -0.18400
H471        H  0.00705501  0.24465288  0.54087154     0.04200
H472        H  0.48821941  0.24482302  0.43580156     0.04200
N473        N  0.94908771  0.50804513  0.89794717    -0.27400
N474        N  0.93431587  0.51286286  0.87321952    -0.35300
C475        C  0.90256632  0.51368760  0.87780567     0.00900
C476        C  0.89715179  0.50909501  0.90679363     0.07000
C477        C  0.92712850  0.50534799  0.91886001    -0.06100
H478        H  0.88472765  0.51670152  0.86120103     0.07600
H479        H  0.93257991  0.50112675  0.94123258     0.08800
Cu480      Cu  0.95788051  0.51490283  0.83406633     0.44200
Cu481      Cu  0.99842547  0.50475046  0.90207908     0.42000
Cu482      Cu  0.53989527  0.48678898  0.83635228     0.43900
N483        N  0.98511235  0.50556398  0.79779380    -0.34800
N484        N  0.51393966  0.49258485  0.79875194    -0.29000
C485        C  0.52385139  0.48660138  0.77183272    -0.05100
C486        C  0.00042469  0.49693527  0.75309839     0.07100
C487        C  0.97628436  0.50898165  0.77019452     0.00900
H488        H  0.54680487  0.47640160  0.76630278     0.08500
H489        H  0.95362558  0.51869582  0.76313379     0.07600
N490        N  0.56274484  0.49184037  0.87569156    -0.36200
N491        N  0.54770512  0.49947604  0.89966103    -0.28400
C492        C  0.56932966  0.50292817  0.92089331    -0.03700
C493        C  0.59938374  0.49671882  0.90984438     0.05000
C494        C  0.59429811  0.49005403  0.88105303     0.03000
H495        H  0.56359641  0.50932692  0.94279928     0.08100
H496        H  0.61225898  0.48501998  0.86502159     0.07000
N497        N  0.02634812  0.44541365  0.57684524    -0.27400
N498        N  0.02518566  0.42960567  0.60142285    -0.35300
C499        C  0.02448512  0.39765058  0.59596000     0.00900
C500        C  0.02565779  0.39309091  0.56654691     0.07000
C501        C  0.02666473  0.42394183  0.55510332    -0.06100
H502        H  0.02196341  0.37909870  0.61216752     0.07600
H503        H  0.02564873  0.43033290  0.53265463     0.08800
Cu504      Cu  0.02065841  0.45230923  0.64098006     0.44200
Cu505      Cu  0.02240489  0.49523999  0.57397503     0.42000
Cu506      Cu  0.99202322  0.03462647  0.63810703     0.43900
N507        N  0.00974839  0.47958326  0.67707815    -0.34800
N508        N  0.99701633  0.00877076  0.67590729    -0.29000
C509        C  0.99111839  0.01915172  0.70275587    -0.05100
C510        C  0.00119601  0.49560201  0.72164839     0.07100
C511        C  0.01302045  0.47093583  0.70472367     0.00900
H512        H  0.98136847  0.04257685  0.70813742     0.08500
H513        H  0.02285929  0.44820934  0.71193409     0.07600
N514        N  0.99880376  0.05794795  0.59922807    -0.36200
N515        N  0.01135284  0.04398216  0.57632681    -0.28400
C516        C  0.01475714  0.06618963  0.55551765    -0.03700
C517        C  0.00371181  0.09541531  0.56584214     0.05000
C518        C  0.99358027  0.08934370  0.59349070     0.03000
H519        H  0.02436373  0.06137718  0.53441449     0.08100
H520        H  0.98386178  0.10663517  0.60855845     0.07000
C521        C  0.77830124  0.50437763  0.96992003     0.02200
C522        C  0.77932403  0.50451149  0.00031348     0.02100
C523        C  0.75050205  0.50376896  0.01576936    -0.18400
C524        C  0.72072426  0.50331240  0.00172655     0.02200
C525        C  0.71977714  0.50480609  0.97133816     0.02100
C526        C  0.74858409  0.50513602  0.95591796    -0.18400
H527        H  0.74785692  0.50553455  0.93266890     0.04200
H528        H  0.75126878  0.50309653  0.03900850     0.04200
C529        C  0.63032687  0.49841378  0.92531592    -0.06200
C530        C  0.63669523  0.02539249  0.94284159    -0.17400
C531        C  0.66605070  0.02899156  0.95709301     0.11000
C532        C  0.68923333  0.50432834  0.95490379    -0.06200
C533        C  0.68314294  0.47779442  0.93681270    -0.17400
C534        C  0.65397824  0.47433982  0.92237105     0.11000
S535        S  0.67291848  0.06639327  0.97621448    -0.32400
S536        S  0.64787511  0.43767789  0.90201717    -0.32400
H537        H  0.61544195  0.43414452  0.90931253     0.29000
H538        H  0.70644409  0.06603054  0.97442696     0.28600
H539        H  0.61903633  0.04437544  0.94468982     0.19600
H540        H  0.70086096  0.45887036  0.93485189     0.19600
C541        C  0.86609577  0.50777389  0.92181722    -0.06200
C542        C  0.85863577  0.48025911  0.93808477    -0.17400
C543        C  0.82944751  0.47757412  0.95258888     0.11000
C544        C  0.80781114  0.50375118  0.95218135    -0.06200
C545        C  0.81474679  0.03067116  0.93496311    -0.17400
C546        C  0.84364336  0.03309018  0.92002923     0.11000
S547        S  0.82070401  0.43954381  0.96983164    -0.32400
S548        S  0.85112857  0.06986496  0.90043488    -0.32400
H549        H  0.88394575  0.07150452  0.90693001     0.29000
H550        H  0.78723857  0.44226194  0.96895189     0.29000
H551        H  0.87534621  0.46032501  0.93886010     0.19600
H552        H  0.79806449  0.05063158  0.93416084     0.19600
C553        C  0.99827624  0.18517496  0.52030127    -0.06200
C554        C  0.52818086  0.17149529  0.52616592    -0.17400
C555        C  0.53070499  0.14229274  0.54103557     0.11000
C556        C  0.00271004  0.12653687  0.55063453    -0.06200
C557        C  0.97284140  0.14051380  0.54526925    -0.17400
C558        C  0.97028277  0.16958892  0.53017360     0.11000
S559        S  0.57026155  0.12665231  0.54730561    -0.32400
S560        S  0.93064750  0.18504904  0.52394144    -0.32400
H561        H  0.93922367  0.21782703  0.52218978     0.29000
H562        H  0.56337949  0.11257910  0.57401521     0.29000
H563        H  0.54971321  0.18356815  0.51884992     0.19600
H564        H  0.95131168  0.12845332  0.55261082     0.19600
C565        C  0.00695251  0.30494987  0.51980580    -0.06200
C566        C  0.53246676  0.32514895  0.51169785    -0.17400
C567        C  0.53946048  0.35371642  0.52667585     0.11000
C568        C  0.02089668  0.36233149  0.55076332    -0.06200
C569        C  0.99597522  0.34174549  0.55939297    -0.17400
C570        C  0.98846741  0.31356142  0.54405417     0.11000
S571        S  0.57308587  0.37736936  0.51451712    -0.32400
S572        S  0.95435963  0.29049826  0.55626060    -0.32400
H573        H  0.94587707  0.27740969  0.52949271     0.29000
H574        H  0.58252954  0.38798791  0.54195650     0.29000
H575        H  0.54745999  0.31834210  0.49378888     0.19600
H576        H  0.98139439  0.34830135  0.57766760     0.19600
C577        C  0.48486387  0.12707687  0.42497743    -0.06200
C578        C  0.95890551  0.14838963  0.42556374    -0.17400
C579        C  0.96013136  0.17706059  0.44166240     0.11000
C580        C  0.48824070  0.18489865  0.45720997    -0.06200
C581        C  0.51450475  0.16400346  0.45578446    -0.17400
C582        C  0.51315042  0.13531062  0.43993958     0.11000
S583        S  0.92491928  0.20216853  0.44144016    -0.32400
S584        S  0.54881941  0.11103471  0.43868842    -0.32400
H585        H  0.54456193  0.10060773  0.41018103     0.29000
H586        H  0.93083522  0.21882767  0.46718187     0.29000
H587        H  0.93720164  0.14221935  0.41399630     0.19600
H588        H  0.53659532  0.17050176  0.46654936     0.19600
C589        C  0.50144772  0.36288103  0.42518019    -0.06200
C590        C  0.97607927  0.35781669  0.44435119    -0.17400
C591        C  0.97283496  0.32871786  0.45931315     0.11000
C592        C  0.49623651  0.30451014  0.45612754    -0.06200
C593        C  0.52142335  0.30938927  0.43676988    -0.17400
C594        C  0.52441083  0.33828334  0.42144562     0.11000
S595        S  0.93768946  0.32347398  0.48110536    -0.32400
S596        S  0.55895178  0.34282288  0.39875559    -0.32400
H597        H  0.56353891  0.37591412  0.40462135     0.29000
H598        H  0.93541514  0.28978240  0.47729320     0.29000
H599        H  0.95801883  0.37629462  0.44698721     0.19600
H600        H  0.53950078  0.29089525  0.43429742     0.19600
C601        C  0.63309701  0.50119185  0.05051271    -0.06200
C602        C  0.64096811  0.47504326  0.03267247    -0.17400
C603        C  0.67001383  0.47423664  0.01776720     0.11000
C604        C  0.69113184  0.50102112  0.01936581    -0.06200
C605        C  0.68367195  0.02673681  0.03790332    -0.17400
C606        C  0.65489904  0.02724278  0.05325566     0.11000
S607        S  0.67932548  0.43757549  0.99851129    -0.32400
S608        S  0.64679769  0.06249634  0.07484791    -0.32400
H609        H  0.61366587  0.06272161  0.06969882     0.29000
H610        H  0.71274475  0.44098707  0.99978871     0.29000
H611        H  0.62474703  0.45459235  0.03103464     0.19600
H612        H  0.69989357  0.04718406  0.03958572     0.19600
C613        C  0.86943039  0.49907463  0.04528366    -0.06200
C614        C  0.86217024  0.02667956  0.02916980    -0.17400
C615        C  0.83256125  0.02984856  0.01531305     0.11000
C616        C  0.81006643  0.50419573  0.01650000    -0.06200
C617        C  0.81723615  0.47683930  0.03305206    -0.17400
C618        C  0.84667458  0.47385265  0.04712284     0.11000
S619        S  0.82442584  0.06795348  0.99809054    -0.32400
S620        S  0.85412500  0.43685526  0.06633603    -0.32400
H621        H  0.88726953  0.43633527  0.06143027     0.29000
H622        H  0.79095843  0.06625275  0.00023569     0.29000
H623        H  0.87924548  0.04645487  0.02828713     0.19600
H624        H  0.80010167  0.45713651  0.03424093     0.19600
N625        N  0.55056581  0.99717232  0.07571978    -0.27400
N626        N  0.56581917  0.99942712  0.10056422    -0.35300
C627        C  0.59748698  0.00145071  0.09553615     0.00900
C628        C  0.60235134  0.00015701  0.06617180     0.07000
C629        C  0.57213439  0.99716102  0.05433123    -0.06100
H630        H  0.61564070  0.00344093  0.11202237     0.07600
H631        H  0.56622349  0.99573103  0.03175414     0.08800
Cu632      Cu  0.54282138  0.49899746  0.14024955     0.44200
Cu633      Cu  0.00096422  0.99611176  0.07155005     0.42000
Cu634      Cu  0.95615692  0.50206595  0.13740470     0.43900
N635        N  0.51372234  0.49872010  0.17654716    -0.34800
N636        N  0.98224222  0.50152628  0.17540463    -0.29000
C637        C  0.97055681  0.50189214  0.20228114    -0.05100
C638        C  0.49577536  0.49847837  0.22118330     0.07100
C639        C  0.52278302  0.49642033  0.20422771     0.00900
H640        H  0.94546565  0.50362943  0.20762363     0.08500
H641        H  0.54723194  0.49389527  0.21147600     0.07600
N642        N  0.93488165  0.99935808  0.09711407    -0.36200
N643        N  0.95121346  0.99779426  0.07288845    -0.28400
C644        C  0.93052916  0.99745911  0.05067485    -0.03700
C645        C  0.89978363  0.99832865  0.06153212     0.05000
C646        C  0.90342297  0.99953543  0.09100000     0.03000
H647        H  0.93734013  0.99647247  0.02831674     0.08100
H648        H  0.88458663  0.00094290  0.10681592     0.07000
N649        N  0.48364777  0.54403156  0.39899820    -0.27400
N650        N  0.47723973  0.55954732  0.37492626    -0.35300
C651        C  0.47541892  0.59144851  0.38061515     0.00900
C652        C  0.48141602  0.59605622  0.40955363     0.07000
C653        C  0.48634931  0.56550422  0.42055750    -0.06100
H654        H  0.47175893  0.61001352  0.36465145     0.07600
H655        H  0.49244684  0.55941369  0.44244602     0.08800
Cu656      Cu  0.47610356  0.53663185  0.33514125     0.44200
Cu657      Cu  0.49088333  0.99475465  0.40121710     0.42000
Cu658      Cu  0.50344164  0.95265171  0.33433960     0.43900
N659        N  0.48529303  0.51031943  0.29796168    -0.34800
N660        N  0.49722837  0.98071447  0.29767294    -0.29000
C661        C  0.50315553  0.97207276  0.27031066    -0.05100
C662        C  0.49403095  0.99720618  0.25264105     0.07100
C663        C  0.48265406  0.52094439  0.27079584     0.00900
H664        H  0.51282441  0.94899846  0.26374879     0.08500
H665        H  0.47392632  0.54455774  0.26477222     0.07600
N666        N  0.50317703  0.92985584  0.37415699    -0.36200
N667        N  0.49807439  0.94548951  0.39848211    -0.28400
C668        C  0.49736625  0.92422220  0.42019943    -0.03700
C669        C  0.50260468  0.89366651  0.40915156     0.05000
C670        C  0.50599727  0.89807436  0.37984020     0.03000
H671        H  0.49293294  0.93050482  0.44237298     0.08100
H672        H  0.50916174  0.87946933  0.36374277     0.07000
C673        C  0.00119846  0.77450441  0.50338005     0.02200
C674        C  0.99599791  0.77438939  0.47330565     0.02100
C675        C  0.99168565  0.74488358  0.45885041    -0.18400
C676        C  0.99188257  0.71545069  0.47367605     0.02200
C677        C  0.99727440  0.71550910  0.50359291     0.02100
C678        C  0.00229510  0.74488474  0.51801397    -0.18400
H679        H  0.00705537  0.74465293  0.54087208     0.04200
H680        H  0.48821911  0.74482301  0.43580141     0.04200
N681        N  0.94908766  0.00804553  0.89794707    -0.27400
N682        N  0.93431590  0.01286333  0.87321951    -0.35300
C683        C  0.90256630  0.01368823  0.87780563     0.00900
C684        C  0.89715174  0.00909563  0.90679354     0.07000
C685        C  0.92712845  0.00534843  0.91886009    -0.06100
H686        H  0.88472772  0.01670219  0.86120105     0.07600
H687        H  0.93257963  0.00112724  0.94123182     0.08800
Cu688      Cu  0.95788064  0.01490311  0.83406630     0.44200
Cu689      Cu  0.99842536  0.00475052  0.90207913     0.42000
Cu690      Cu  0.53989521  0.98678916  0.83635209     0.43900
N691        N  0.98511266  0.00556402  0.79779387    -0.34800
N692        N  0.51393943  0.99258481  0.79875182    -0.29000
C693        C  0.52385122  0.98660131  0.77183254    -0.05100
C694        C  0.00042521  0.99693524  0.75309854     0.07100
C695        C  0.97628497  0.00898180  0.77019458     0.00900
H696        H  0.54680436  0.97640185  0.76630266     0.08500
H697        H  0.95362599  0.01869638  0.76313363     0.07600
N698        N  0.56274484  0.99184071  0.87569133    -0.36200
N699        N  0.54770518  0.99947633  0.89966075    -0.28400
C700        C  0.56932976  0.00292851  0.92089313    -0.03700
C701        C  0.59938384  0.99671917  0.90984404     0.05000
C702        C  0.59429816  0.99005441  0.88105272     0.03000
H703        H  0.56359670  0.00932703  0.94279856     0.08100
H704        H  0.61225893  0.98502040  0.86502131     0.07000
N705        N  0.02634854  0.94541362  0.57684524    -0.27400
N706        N  0.02518644  0.92960574  0.60142295    -0.35300
C707        C  0.02448606  0.89765051  0.59596027     0.00900
C708        C  0.02565848  0.89309092  0.56654698     0.07000
C709        C  0.02666507  0.92394172  0.55510359    -0.06100
H710        H  0.02196473  0.87909926  0.61216731     0.07600
H711        H  0.02564875  0.93033303  0.53265380     0.08800
Cu712      Cu  0.02065945  0.95230936  0.64098016     0.44200
Cu713      Cu  0.02240494  0.99523995  0.57397496     0.42000
Cu714      Cu  0.99202282  0.53462657  0.63810696     0.43900
N715        N  0.00974935  0.97958339  0.67707827    -0.34800
N716        N  0.99701561  0.50877080  0.67590719    -0.29000
C717        C  0.99111784  0.51915176  0.70275574    -0.05100
C718        C  0.00119677  0.99560203  0.72164853     0.07100
C719        C  0.01302147  0.97093596  0.70472382     0.00900
H720        H  0.98136807  0.54257730  0.70813738     0.08500
H721        H  0.02286038  0.94820969  0.71193421     0.07600
N722        N  0.99880371  0.55794806  0.59922811    -0.36200
N723        N  0.01135293  0.54398226  0.57632684    -0.28400
C724        C  0.01475731  0.56618974  0.55551788    -0.03700
C725        C  0.00371203  0.59541539  0.56584217     0.05000
C726        C  0.99358027  0.58934383  0.59349077     0.03000
H727        H  0.02436432  0.56137713  0.53441400     0.08100
H728        H  0.98386178  0.60663514  0.60855833     0.07000
C729        C  0.77830126  0.00437775  0.96992004     0.02200
C730        C  0.77932397  0.00451133  0.00031344     0.02100
C731        C  0.75050195  0.00376865  0.01576937    -0.18400
C732        C  0.72072419  0.00331223  0.00172636     0.02200
C733        C  0.71977715  0.00480618  0.97133802     0.02100
C734        C  0.74858415  0.00513625  0.95591788    -0.18400
H735        H  0.74785705  0.00553499  0.93266888     0.04200
H736        H  0.75126860  0.00309605  0.03900796     0.04200
C737        C  0.63032698  0.99841411  0.92531558    -0.06200
C738        C  0.63669520  0.52539228  0.94284175    -0.17400
C739        C  0.66605069  0.52899142  0.95709311     0.11000
C740        C  0.68923342  0.00432854  0.95490354    -0.06200
C741        C  0.68314305  0.97779485  0.93681225    -0.17400
C742        C  0.65397844  0.97434021  0.92237055     0.11000
S743        S  0.67291859  0.56639331  0.97621429    -0.32400
S744        S  0.64787539  0.93767840  0.90201649    -0.32400
H745        H  0.61544226  0.93414488  0.90931187     0.29000
H746        H  0.70644419  0.56603053  0.97442662     0.28600
H747        H  0.61903630  0.54437534  0.94468987     0.19600
H748        H  0.70086142  0.95887051  0.93485130     0.19600
C749        C  0.86609577  0.00777439  0.92181719    -0.06200
C750        C  0.85863572  0.98025956  0.93808455    -0.17400
C751        C  0.82944755  0.97757441  0.95258869     0.11000
C752        C  0.80781118  0.00375151  0.95218138    -0.06200
C753        C  0.81474672  0.53067067  0.93496287    -0.17400
C754        C  0.84364334  0.53308959  0.92002905     0.11000
S755        S  0.82070405  0.93954396  0.96983121    -0.32400
S756        S  0.85112855  0.56986423  0.90043449    -0.32400
H757        H  0.88394568  0.57150396  0.90692983     0.29000
H758        H  0.78723861  0.94226211  0.96895160     0.29000
H759        H  0.87534638  0.96032514  0.93885973     0.19600
H760        H  0.79806445  0.55063101  0.93416044     0.19600
C761        C  0.99827660  0.68517505  0.52030133    -0.06200
C762        C  0.52818096  0.67149510  0.52616559    -0.17400
C763        C  0.53070511  0.64229253  0.54103517     0.11000
C764        C  0.00271024  0.62653696  0.55063462    -0.06200
C765        C  0.97284171  0.64051397  0.54526932    -0.17400
C766        C  0.97028305  0.66958903  0.53017367     0.11000
S767        S  0.57026164  0.62665188  0.54730490    -0.32400
S768        S  0.93064781  0.68504915  0.52394138    -0.32400
H769        H  0.93922397  0.71782712  0.52218950     0.29000
H770        H  0.56337977  0.61257873  0.57401457     0.29000
H771        H  0.54971346  0.68356795  0.51884939     0.19600
H772        H  0.95131165  0.62845336  0.55261102     0.19600
C773        C  0.00695298  0.80494992  0.51980592    -0.06200
C774        C  0.53246681  0.82514906  0.51169757    -0.17400
C775        C  0.53946050  0.85371655  0.52667562     0.11000
C776        C  0.02089736  0.86233141  0.55076353    -0.06200
C777        C  0.99597593  0.84174542  0.55939322    -0.17400
C778        C  0.98846802  0.81356140  0.54405435     0.11000
S779        S  0.57308589  0.87736949  0.51451686    -0.32400
S780        S  0.95436021  0.79049830  0.55626082    -0.32400
H781        H  0.94587754  0.77740986  0.52949290     0.29000
H782        H  0.58252960  0.88798805  0.54195623     0.29000
H783        H  0.54745980  0.81834231  0.49378883     0.19600
H784        H  0.98139524  0.84830122  0.57766786     0.19600
C785        C  0.48486385  0.62707681  0.42497754    -0.06200
C786        C  0.95890618  0.64838987  0.42556342    -0.17400
C787        C  0.96013210  0.67706083  0.44166215     0.11000
C788        C  0.48824069  0.68489865  0.45720997    -0.06200
C789        C  0.51450487  0.66400368  0.45578417    -0.17400
C790        C  0.51315056  0.63531082  0.43993933     0.11000
S791        S  0.92492018  0.70216900  0.44143961    -0.32400
S792        S  0.54881971  0.61103518  0.43868780    -0.32400
H793        H  0.54456186  0.60060797  0.41018052     0.29000
H794        H  0.93083579  0.71882771  0.46718161     0.29000
H795        H  0.93720271  0.64221988  0.41399591     0.19600
H796        H  0.53659563  0.67050220  0.46654887     0.19600
C797        C  0.50144748  0.86288113  0.42518023    -0.06200
C798        C  0.97607973  0.85781666  0.44435114    -0.17400
C799        C  0.97283548  0.82871786  0.45931315     0.11000
C800        C  0.49623632  0.80451015  0.45612744    -0.06200
C801        C  0.52142322  0.80938937  0.43676986    -0.17400
C802        C  0.52441068  0.83828351  0.42144568     0.11000
S803        S  0.93769000  0.82347396  0.48110539    -0.32400
S804        S  0.55895171  0.84282323  0.39875578    -0.32400
H805        H  0.56353870  0.87591447  0.40462163     0.29000
H806        H  0.93541571  0.78978237  0.47729323     0.29000
H807        H  0.95801929  0.87629452  0.44698714     0.19600
H808        H  0.53950069  0.79089546  0.43429742     0.19600
C809        C  0.63309694  0.00119179  0.05051257    -0.06200
C810        C  0.64096782  0.97504347  0.03267201    -0.17400
C811        C  0.67001346  0.97423669  0.01776672     0.11000
C812        C  0.69113176  0.00102102  0.01936562    -0.06200
C813        C  0.68367186  0.52673721  0.03790324    -0.17400
C814        C  0.65489882  0.52724305  0.05325550     0.11000
S815        S  0.67932481  0.93757570  0.99851049    -0.32400
S816        S  0.64679707  0.56249691  0.07484727    -0.32400
H817        H  0.61366526  0.56272172  0.06969814     0.29000
H818        H  0.71274410  0.94098698  0.99978790     0.29000
H819        H  0.62474628  0.95459239  0.03103394     0.19600
H820        H  0.69989294  0.54718419  0.03958538     0.19600
C821        C  0.86943027  0.99907430  0.04528369    -0.06200
C822        C  0.86217040  0.52667966  0.02916951    -0.17400
C823        C  0.83256146  0.52984868  0.01531275     0.11000
C824        C  0.81006632  0.00419549  0.01650004    -0.06200
C825        C  0.81723619  0.97683896  0.03305184    -0.17400
C826        C  0.84667456  0.97385220  0.04712263     0.11000
S827        S  0.82442621  0.56795345  0.99808991    -0.32400
S828        S  0.85412510  0.93685465  0.06633551    -0.32400
H829        H  0.88726965  0.93633484  0.06142982     0.29000
H830        H  0.79095879  0.56625287  0.00023504     0.29000
H831        H  0.87924597  0.54645515  0.02828663     0.19600
H832        H  0.80010154  0.95713582  0.03424055     0.19600
loop_ 
_geom_bond_atom_site_label_1 
_geom_bond_atom_site_label_2 
_geom_bond_distance 
_geom_bond_site_symmetry_2 
_ccdc_geom_bond_type 
N1            N2   1.324       .  A
N1            C5   1.346       .  A
N1         Cu425   2.084       .  S
N2            C3   1.348       .  A
N2         Cu216   2.087       .  S
C3            C4   1.385       .  A
C3            H6   1.082       .  S
C4            C5   1.383       .  A
C4          C185   1.481       .  S
C5            H7   1.082       .  S
Cu8          N11   2.087       .  S
Cu8         N210   2.087       .  S
Cu9          N19   2.084       .  S
Cu9         N417   2.084       .  S
Cu10         N12   2.079       .  S
Cu10        N226   2.079   1_545  S
N11         N428   1.324   1_465  A
N11          C15   1.348       .  A
N12         N427   1.324   1_545  A
N12          C13   1.346       .  A
C13         C430   1.381   1_545  A
C13          H16   1.082       .  S
C14          C15   1.383   1_655  A
C14         C429   1.381   1_565  A
C14         C246   1.470       .  S
C15          H17   1.082       .  S
N18          N19   1.323       .  A
N18          C22   1.346       .  A
N18        Cu218   2.079       .  S
N19          C20   1.348       .  A
C20          C21   1.384       .  A
C20          H23   1.082       .  S
C21          C22   1.383       .  A
C21         C197   1.477       .  S
C22          H24   1.082       .  S
N25          N26   1.322       .  A
N25          C29   1.343       .  A
N25        Cu241   2.064   1_545  S
N26          C27   1.347       .  A
N26         Cu32   2.080       .  S
C27          C28   1.384       .  A
C27          H30   1.082       .  S
C28          C29   1.381       .  A
C28         C161   1.475       .  S
C29          H31   1.082       .  S
Cu32         N35   2.081       .  S
Cu33         N43   2.064       .  S
Cu33        N233   2.064       .  S
Cu34         N36   2.085   1_455  S
Cu34         N42   2.084       .  S
N35         N244   1.324   1_545  A
N35          C39   1.346       .  A
N36         N243   1.324       .  A
N36          C37   1.348   1_655  A
C37          C38   1.383   1_455  A
C37          H40   1.082       .  S
C38         C247   1.381       .  A
C38         C222   1.470       .  S
C39         C246   1.381   1_545  A
C39          H41   1.082       .  S
N42          N43   1.322   1_455  A
N42          C46   1.347       .  A
N43          C44   1.343       .  A
C44          C45   1.381   1_655  A
C44          H47   1.082       .  S
C45          C46   1.387       .  A
C45         C173   1.479       .  S
C46          H48   1.082       .  S
C49          C50   1.418       .  A
C49          C54   1.405       .  A
C49         C149   1.490       .  S
C50          C51   1.402       .  A
C50         C592   1.483       .  S
C51          C52   1.401       .  A
C51         H472   1.084       .  S
C52          C53   1.412       .  A
C52         C580   1.483       .  S
C53          C54   1.401       .  A
C53         C137   1.479       .  S
C54          H55   1.084       .  S
H56         C467   1.084       .  S
N57          N58   1.323       .  A
N57          C61   1.346       .  A
N57         Cu65   2.078       .  S
N58          C59   1.346       .  A
N58         Cu64   2.078       .  S
C59          C60   1.384       .  A
C59          H62   1.082       .  S
C60          C61   1.383       .  A
C60         C125   1.478       .  S
C61          H63   1.082       .  S
Cu64         N67   2.078       .  S
Cu65        N491   2.077       .  S
Cu66         N68   2.075       .  S
Cu66         N74   2.076       .  S
N67         N484   1.323       .  A
N67          C71   1.346       .  A
N68         N483   1.323   1_455  A
N68          C69   1.345       .  A
C69         C486   1.381       .  A
C69          H72   1.082       .  S
C70          C71   1.382       .  A
C70         C485   1.381       .  A
C70          C94   1.467       .  S
C71          H73   1.082       .  S
N74          N75   1.322       .  A
N74          C78   1.345       .  A
N75          C76   1.346       .  A
N75        Cu481   2.077   1_455  S
C76          C77   1.385       .  A
C76          H79   1.082       .  S
C77          C78   1.385       .  A
C77         C113   1.482       .  S
C78          H80   1.082       .  S
N81          N82   1.322       .  A
N81          C85   1.345       .  A
N81         Cu89   2.072       .  S
N82          C83   1.345       .  A
N82         Cu88   2.076       .  S
C83          C84   1.385       .  A
C83          H86   1.083       .  S
C84          C85   1.385       .  A
C84         C152   1.480       .  S
C85          H87   1.081       .  S
Cu88         N91   2.076       .  S
Cu89        N307   2.072       .  S
Cu90         N92   2.075       .  S
Cu90         N98   2.075       .  S
N91         N300   1.323       .  A
N91          C95   1.345       .  A
N92         N299   1.323   1_545  A
N92          C93   1.346       .  A
C93         C302   1.382   1_545  A
C93          H96   1.082       .  S
C94          C95   1.382       .  A
C94         C301   1.382       .  A
C95          H97   1.082       .  S
N98          N99   1.323       .  A
N98         C102   1.345       .  A
N99         C100   1.345       .  A
N99        Cu297   2.072   1_545  S
C100        C101   1.381       .  A
C100        H103   1.082       .  S
C101        C102   1.381       .  A
C101        C140   1.472       .  S
C102        H104   1.082       .  S
C105        C106   1.417   1_556  A
C105        C110   1.403       .  A
C105        C128   1.488       .  S
C106        C107   1.406       .  A
C106        C200   1.490       .  S
C107        C108   1.406       .  A
C107        H112   1.084       .  S
C108        C109   1.419   1_554  A
C108        C188   1.491       .  S
C109        C110   1.405       .  A
C109        C116   1.488       .  S
C110        H111   1.084       .  S
C113        C118   1.414       .  A
C113        C322   1.405       .  A
C114        C115   1.402       .  A
C114        C321   1.405   1_545  A
C114        H123   1.084       .  S
C115        C324   1.414       .  A
C115        S119   1.804       .  S
C116        C117   1.404       .  A
C116        C323   1.414       .  A
C117        C118   1.399       .  A
C117        H124   1.084       .  S
C118        S120   1.803       .  S
S119        H122   1.405       .  S
S120        H121   1.407       .  S
C125        C126   1.403       .  A
C125        C338   1.412       .  A
C126        C127   1.401       .  A
C126        H135   1.084       .  S
C127        C128   1.414       .  A
C127        S131   1.804       .  S
C128        C337   1.404       .  A
C129        C130   1.400       .  A
C129        C336   1.404       .  A
C129        H136   1.084       .  S
C130        C333   1.412       .  A
C130        S132   1.803       .  S
S131        H134   1.406       .  S
S132        H133   1.406       .  S
C137        C142   1.413       .  A
C137        C554   1.402       .  A
C138        C139   1.398       .  A
C138        C553   1.402   1_455  A
C138        H147   1.084       .  S
C139        C556   1.412       .  A
C139        S143   1.803       .  S
C140        C141   1.402       .  A
C140        C555   1.412       .  A
C141        C142   1.399       .  A
C141        H148   1.084       .  S
C142        S144   1.803       .  S
S143        H146   1.406       .  S
S144        H145   1.403       .  S
C149        C154   1.417       .  A
C149        C566   1.405       .  A
C150        C151   1.399       .  A
C150        C565   1.405       .  A
C150        H159   1.083       .  S
C151        C568   1.413       .  A
C151        S155   1.803       .  S
C152        C153   1.403       .  A
C152        C567   1.413       .  A
C153        C154   1.399       .  A
C153        H160   1.084       .  S
C154        S156   1.806       .  S
S155        H158   1.406       .  S
S156        H157   1.403       .  S
C161        C166   1.412   1_655  A
C161        C578   1.402       .  A
C162        C163   1.402       .  A
C162        C577   1.402       .  A
C162        H171   1.084       .  S
C163        C580   1.416       .  A
C163        S167   1.806       .  S
C164        C165   1.403   1_655  A
C164        C579   1.416       .  A
C164        C468   1.483       .  S
C165        C166   1.396       .  A
C165        H172   1.083       .  S
C166        S168   1.803       .  S
S167        H170   1.403       .  S
S168        H169   1.407       .  S
C173        C178   1.413       .  A
C173        C590   1.404   1_455  A
C174        C175   1.399       .  A
C174        C589   1.404       .  A
C174        H183   1.084       .  S
C175        C592   1.411       .  A
C175        S179   1.802       .  S
C176        C177   1.403   1_655  A
C176        C591   1.411       .  A
C176        C466   1.483       .  S
C177        C178   1.399       .  A
C177        H184   1.084       .  S
C178        S180   1.802       .  S
S179        H182   1.406       .  S
S180        H181   1.406       .  S
C185        C186   1.403       .  A
C185        C398   1.413       .  A
C186        C187   1.402       .  A
C186        H195   1.084       .  S
C187        C188   1.415       .  A
C187        S191   1.804   1_554  S
C188        C397   1.405       .  A
C189        C190   1.402       .  A
C189        C396   1.405       .  A
C189        H196   1.084       .  S
C190        C393   1.413       .  A
C190        S192   1.803       .  S
S191        H194   1.406       .  S
S192        H193   1.406       .  S
C197        C202   1.411       .  A
C197        C406   1.402       .  A
C198        C199   1.402       .  A
C198        C405   1.402   1_545  A
C198        H207   1.084       .  S
C199        C408   1.416       .  A
C199        S203   1.804   1_554  S
C200        C201   1.404       .  A
C200        C407   1.416       .  A
C201        C202   1.400       .  A
C201        H208   1.084       .  S
C202        S204   1.803       .  S
S203        H206   1.405   1_556  S
S204        H205   1.406       .  S
N209        N210   1.324       .  A
N209        C213   1.346       .  A
N209       Cu633   2.084       .  S
N210        C211   1.348   1_565  A
C211        C212   1.385       .  A
C211        H214   1.082       .  S
C212        C213   1.383   1_545  A
C212        C393   1.481       .  S
C213        H215   1.082       .  S
Cu216       N219   2.087       .  S
Cu217       N625   2.084       .  S
Cu217       N227   2.084       .  S
Cu218       N220   2.079       .  S
N219        N636   1.324   1_455  A
N219        C223   1.348       .  A
N220        N635   1.324       .  A
N220        C221   1.346       .  A
C221        C638   1.381       .  A
C221        H224   1.082       .  S
C222        C637   1.381       .  A
C222        C223   1.383   1_655  A
C223        H225   1.082       .  S
N226        N227   1.323       .  A
N226        C230   1.346       .  A
N227        C228   1.348       .  A
C228        C229   1.384       .  A
C228        H231   1.082       .  S
C229        C230   1.383       .  A
C229        C405   1.477       .  S
C230        H232   1.082   1_565  S
N233        N234   1.322       .  A
N233        C237   1.343       .  A
N234        C235   1.347       .  A
N234       Cu240   2.080       .  S
C235        C236   1.384       .  A
C235        H238   1.082       .  S
C236        C237   1.381       .  A
C236        C369   1.475       .  S
C237        H239   1.082       .  S
Cu240       N243   2.081       .  S
Cu241       N251   2.064       .  S
Cu242       N244   2.085   1_455  S
Cu242       N250   2.084       .  S
N243        C247   1.346       .  A
N244        C245   1.348   1_655  A
C245        C246   1.383   1_455  A
C245        H248   1.082       .  S
C247        H249   1.082       .  S
N250        N251   1.322   1_455  A
N250        C254   1.347       .  A
N251        C252   1.343       .  A
C252        C253   1.381   1_655  A
C252        H255   1.082       .  S
C253        C254   1.387       .  A
C253        C381   1.479       .  S
C254        H256   1.082       .  S
C257        C258   1.418       .  A
C257        C262   1.405       .  A
C257        C357   1.490       .  S
C258        C259   1.402       .  A
C258        C800   1.483       .  S
C259        C260   1.401       .  A
C259        H680   1.084       .  S
C260        C261   1.412       .  A
C260        C788   1.483       .  S
C261        C262   1.401       .  A
C261        C345   1.479       .  S
C262        H263   1.084       .  S
H264        C675   1.084       .  S
N265        N266   1.323       .  A
N265        C269   1.346       .  A
N265       Cu273   2.078       .  S
N266        C267   1.346       .  A
N266       Cu272   2.078       .  S
C267        C268   1.384       .  A
C267        H270   1.082       .  S
C268        C269   1.383       .  A
C268        C333   1.478       .  S
C269        H271   1.082       .  S
Cu272       N275   2.078       .  S
Cu273       N699   2.077   1_545  S
Cu274       N276   2.075       .  S
Cu274       N282   2.076       .  S
N275        N692   1.323   1_545  A
N275        C279   1.346       .  A
N276        N691   1.323   1_465  A
N276        C277   1.345       .  A
C277        C694   1.381       .  A
C277        H280   1.082       .  S
C278        C693   1.381       .  A
C278        C279   1.382   1_565  A
C278        C302   1.467       .  S
C279        H281   1.082       .  S
N282        N283   1.322       .  A
N282        C286   1.345       .  A
N283        C284   1.346   1_565  A
N283       Cu689   2.077   1_465  S
C284        C285   1.385   1_545  A
C284        H287   1.082       .  S
C285        C286   1.385       .  A
C285        C321   1.482       .  S
C286        H288   1.082       .  S
N289        N290   1.322       .  A
N289        C293   1.345       .  A
N289       Cu297   2.072       .  S
N290        C291   1.345       .  A
N290       Cu296   2.076       .  S
C291        C292   1.385       .  A
C291        H294   1.083       .  S
C292        C293   1.385       .  A
C292        C360   1.480       .  S
C293        H295   1.081       .  S
Cu296       N299   2.076       .  S
Cu298       N300   2.075       .  S
Cu298       N306   2.075       .  S
N299        C303   1.345       .  A
N300        C301   1.346       .  A
C301        H304   1.082       .  S
C302        C303   1.382       .  A
C303        H305   1.082       .  S
N306        N307   1.323       .  A
N306        C310   1.345       .  A
N307        C308   1.345       .  A
C308        C309   1.381       .  A
C308        H311   1.082       .  S
C309        C310   1.381       .  A
C309        C348   1.472       .  S
C310        H312   1.082       .  S
C313        C314   1.417   1_556  A
C313        C318   1.403       .  A
C313        C336   1.488       .  S
C314        C315   1.406       .  A
C314        C408   1.490       .  S
C315        C316   1.406       .  A
C315        H320   1.084       .  S
C316        C317   1.419   1_554  A
C316        C396   1.491       .  S
C317        C318   1.405       .  A
C317        C324   1.488       .  S
C318        H319   1.084       .  S
C321        C326   1.414       .  A
C322        C323   1.402       .  A
C322        H331   1.084       .  S
C323        S327   1.804       .  S
C324        C325   1.404   1_545  A
C325        C326   1.399       .  A
C325        H332   1.084       .  S
C326        S328   1.803       .  S
S327        H330   1.405       .  S
S328        H329   1.407       .  S
C333        C334   1.403   1_545  A
C334        C335   1.401       .  A
C334        H343   1.084       .  S
C335        C336   1.414   1_565  A
C335        S339   1.804       .  S
C337        C338   1.400       .  A
C337        H344   1.084       .  S
C338        S340   1.803       .  S
S339        H342   1.406       .  S
S340        H341   1.406       .  S
C345        C762   1.402       .  A
C345        C350   1.413       .  A
C346        C761   1.402   1_455  A
C346        C347   1.398       .  A
C346        H355   1.084       .  S
C347        C764   1.412       .  A
C347        S351   1.803       .  S
C348        C763   1.412       .  A
C348        C349   1.402       .  A
C349        C350   1.399       .  A
C349        H356   1.084       .  S
C350        S352   1.803       .  S
S351        H354   1.406       .  S
S352        H353   1.403       .  S
C357        C774   1.405       .  A
C357        C362   1.417       .  A
C358        C773   1.405       .  A
C358        C359   1.399       .  A
C358        H367   1.083       .  S
C359        C776   1.413       .  A
C359        S363   1.803       .  S
C360        C775   1.413       .  A
C360        C361   1.403       .  A
C361        C362   1.399       .  A
C361        H368   1.084       .  S
C362        S364   1.806       .  S
S363        H366   1.406       .  S
S364        H365   1.403       .  S
C369        C786   1.402       .  A
C369        C374   1.412   1_655  A
C370        C785   1.402       .  A
C370        C371   1.402       .  A
C370        H379   1.084       .  S
C371        C788   1.416       .  A
C371        S375   1.806       .  S
C372        C787   1.416       .  A
C372        C373   1.403   1_655  A
C372        C676   1.483       .  S
C373        C374   1.396       .  A
C373        H380   1.083       .  S
C374        S376   1.803       .  S
S375        H378   1.403       .  S
S376        H377   1.407       .  S
C381        C798   1.404   1_455  A
C381        C386   1.413       .  A
C382        C797   1.404       .  A
C382        C383   1.399       .  A
C382        H391   1.084       .  S
C383        C800   1.411       .  A
C383        S387   1.802       .  S
C384        C799   1.411       .  A
C384        C385   1.403   1_655  A
C384        C674   1.483       .  S
C385        C386   1.399       .  A
C385        H392   1.084       .  S
C386        S388   1.802       .  S
S387        H390   1.406       .  S
S388        H389   1.406       .  S
C393        C394   1.403   1_545  A
C394        C395   1.402       .  A
C394        H403   1.084       .  S
C395        C396   1.415   1_565  A
C395        S399   1.804   1_554  S
C397        C398   1.402       .  A
C397        H404   1.084       .  S
C398        S400   1.803       .  S
S399        H402   1.406       .  S
S400        H401   1.406       .  S
C405        C410   1.411       .  A
C406        C407   1.402       .  A
C406        H415   1.084       .  S
C407        S411   1.804   1_554  S
C408        C409   1.404   1_545  A
C409        C410   1.400       .  A
C409        H416   1.084       .  S
C410        S412   1.803       .  S
S411        H414   1.405   1_556  S
S412        H413   1.406       .  S
N417        N418   1.324       .  A
N417        C421   1.346       .  A
N418        C419   1.348       .  A
N418       Cu632   2.087       .  S
C419        C420   1.385       .  A
C419        H422   1.082       .  S
C420        C421   1.383       .  A
C420        C601   1.481       .  S
C421        H423   1.082       .  S
Cu424       N626   2.087       .  S
Cu424       N427   2.087       .  S
Cu425       N435   2.084   1_455  S
Cu426       N428   2.079       .  S
Cu426       N642   2.079   1_545  S
N427        C431   1.348       .  A
N428        C429   1.346       .  A
C429        H432   1.082       .  S
C430        C431   1.383       .  A
C430        C662   1.470       .  S
C431        H433   1.082       .  S
N434        N435   1.323       .  A
N434        C438   1.346       .  A
N434       Cu634   2.079       .  S
N435        C436   1.348       .  A
C436        C437   1.384       .  A
C436        H439   1.082       .  S
C437        C438   1.383       .  A
C437        C613   1.477       .  S
C438        H440   1.082       .  S
N441        N442   1.322       .  A
N441        C445   1.343       .  A
N441       Cu657   2.064   1_545  S
N442        C443   1.347       .  A
N442       Cu448   2.080       .  S
C443        C444   1.384       .  A
C443        H446   1.082       .  S
C444        C445   1.381       .  A
C444        C577   1.475       .  S
C445        H447   1.082       .  S
Cu448       N451   2.081       .  S
Cu449       N649   2.064       .  S
Cu449       N459   2.064       .  S
Cu450       N452   2.085       .  S
Cu450       N458   2.084       .  S
N451        N660   1.324   1_545  A
N451        C455   1.346       .  A
N452        N659   1.324       .  A
N452        C453   1.348       .  A
C453        C454   1.383       .  A
C453        H456   1.082       .  S
C454        C663   1.381       .  A
C454        C638   1.470       .  S
C455        C662   1.381   1_545  A
C455        H457   1.082       .  S
N458        N459   1.322       .  A
N458        C462   1.347       .  A
N459        C460   1.343       .  A
C460        C461   1.381       .  A
C460        H463   1.082       .  S
C461        C462   1.387       .  A
C461        C589   1.479       .  S
C462        H464   1.082       .  S
C465        C466   1.418   1_455  A
C465        C470   1.405       .  A
C465        C565   1.490       .  S
C466        C467   1.402       .  A
C467        C468   1.401       .  A
C468        C469   1.412       .  A
C469        C470   1.401   1_655  A
C469        C553   1.479       .  S
C470        H471   1.084       .  S
N473        N474   1.323       .  A
N473        C477   1.346       .  A
N473       Cu481   2.078       .  S
N474        C475   1.346       .  A
N474       Cu480   2.078       .  S
C475        C476   1.384       .  A
C475        H478   1.082       .  S
C476        C477   1.383       .  A
C476        C541   1.478       .  S
C477        H479   1.082       .  S
Cu480       N483   2.078       .  S
Cu482       N484   2.075       .  S
Cu482       N490   2.076       .  S
N483        C487   1.346       .  A
N484        C485   1.345       .  A
C485        H488   1.082       .  S
C486        C487   1.382   1_455  A
C486        C510   1.467       .  S
C487        H489   1.082       .  S
N490        N491   1.322       .  A
N490        C494   1.345       .  A
N491        C492   1.346       .  A
C492        C493   1.385       .  A
C492        H495   1.082       .  S
C493        C494   1.385       .  A
C493        C529   1.482       .  S
C494        H496   1.082       .  S
N497        N498   1.322       .  A
N497        C501   1.345       .  A
N497       Cu505   2.072       .  S
N498        C499   1.345       .  A
N498       Cu504   2.076       .  S
C499        C500   1.385       .  A
C499        H502   1.083       .  S
C500        C501   1.385       .  A
C500        C568   1.480       .  S
C501        H503   1.081       .  S
Cu504       N507   2.076       .  S
Cu505       N723   2.072       .  S
Cu506       N508   2.075       .  S
Cu506       N514   2.075       .  S
N507        N716   1.323   1_455  A
N507        C511   1.345       .  A
N508        N715   1.323   1_645  A
N508        C509   1.346       .  A
C509        C718   1.382   1_645  A
C509        H512   1.082       .  S
C510        C717   1.382   1_455  A
C510        C511   1.382       .  A
C511        H513   1.082       .  S
N514        N515   1.323   1_655  A
N514        C518   1.345       .  A
N515        C516   1.345       .  A
N515       Cu713   2.072   1_545  S
C516        C517   1.381       .  A
C516        H519   1.082       .  S
C517        C518   1.381   1_455  A
C517        C556   1.472       .  S
C518        H520   1.082       .  S
C521        C522   1.417   1_556  A
C521        C526   1.403       .  A
C521        C544   1.488       .  S
C522        C523   1.406       .  A
C522        C616   1.490       .  S
C523        C524   1.406       .  A
C523        H528   1.084       .  S
C524        C525   1.419   1_554  A
C524        C604   1.491       .  S
C525        C526   1.405       .  A
C525        C532   1.488       .  S
C526        H527   1.084       .  S
C529        C738   1.405       .  A
C529        C534   1.414       .  A
C530        C737   1.405   1_545  A
C530        C531   1.402       .  A
C530        H539   1.084       .  S
C531        C740   1.414       .  A
C531        S535   1.804       .  S
C532        C739   1.414       .  A
C532        C533   1.404       .  A
C533        C534   1.399       .  A
C533        H540   1.084       .  S
C534        S536   1.803       .  S
S535        H538   1.405       .  S
S536        H537   1.407       .  S
C541        C542   1.403       .  A
C541        C754   1.412       .  A
C542        C543   1.401       .  A
C542        H551   1.084       .  S
C543        C544   1.414       .  A
C543        S547   1.804       .  S
C544        C753   1.404       .  A
C545        C752   1.404       .  A
C545        C546   1.400       .  A
C545        H552   1.084       .  S
C546        C749   1.412       .  A
C546        S548   1.803       .  S
S547        H550   1.406       .  S
S548        H549   1.406       .  S
C553        C558   1.413       .  A
C554        C555   1.398       .  A
C554        H563   1.084       .  S
C555        S559   1.803       .  S
C556        C557   1.402   1_455  A
C557        C558   1.399       .  A
C557        H564   1.084       .  S
C558        S560   1.803       .  S
S559        H562   1.406       .  S
S560        H561   1.403       .  S
C565        C570   1.417   1_455  A
C566        C567   1.399       .  A
C566        H575   1.083       .  S
C567        S571   1.803       .  S
C568        C569   1.403   1_455  A
C569        C570   1.399       .  A
C569        H576   1.084       .  S
C570        S572   1.806       .  S
S571        H574   1.406       .  S
S572        H573   1.403       .  S
C577        C582   1.412       .  A
C578        C579   1.402       .  A
C578        H587   1.084       .  S
C579        S583   1.806       .  S
C580        C581   1.403       .  A
C581        C582   1.396       .  A
C581        H588   1.083       .  S
C582        S584   1.803       .  S
S583        H586   1.403       .  S
S584        H585   1.407       .  S
C589        C594   1.413       .  A
C590        C591   1.399       .  A
C590        H599   1.084       .  S
C591        S595   1.802       .  S
C592        C593   1.403       .  A
C593        C594   1.399       .  A
C593        H600   1.084       .  S
C594        S596   1.802       .  S
S595        H598   1.406       .  S
S596        H597   1.406       .  S
C601        C602   1.403       .  A
C601        C814   1.413       .  A
C602        C603   1.402       .  A
C602        H611   1.084       .  S
C603        C604   1.415       .  A
C603        S607   1.804   1_554  S
C604        C813   1.405       .  A
C605        C812   1.405       .  A
C605        C606   1.402       .  A
C605        H612   1.084       .  S
C606        C809   1.413       .  A
C606        S608   1.803       .  S
S607        H610   1.406       .  S
S608        H609   1.406       .  S
C613        C822   1.402       .  A
C613        C618   1.411       .  A
C614        C821   1.402   1_545  A
C614        C615   1.402       .  A
C614        H623   1.084       .  S
C615        C824   1.416       .  A
C615        S619   1.804   1_554  S
C616        C823   1.416       .  A
C616        C617   1.404       .  A
C617        C618   1.400       .  A
C617        H624   1.084       .  S
C618        S620   1.803       .  S
S619        H622   1.405   1_556  S
S620        H621   1.406       .  S
N625        N626   1.324       .  A
N625        C629   1.346       .  A
N626        C627   1.348   1_565  A
C627        C628   1.385       .  A
C627        H630   1.082       .  S
C628        C629   1.383   1_545  A
C628        C809   1.481       .  S
C629        H631   1.082       .  S
Cu632       N635   2.087       .  S
Cu633       N643   2.084   1_455  S
Cu634       N636   2.079       .  S
N635        C639   1.348       .  A
N636        C637   1.346       .  A
C637        H640   1.082       .  S
C638        C639   1.383       .  A
C639        H641   1.082       .  S
N642        N643   1.323       .  A
N642        C646   1.346       .  A
N643        C644   1.348       .  A
C644        C645   1.384       .  A
C644        H647   1.082       .  S
C645        C646   1.383       .  A
C645        C821   1.477       .  S
C646        H648   1.082   1_565  S
N649        N650   1.322       .  A
N649        C653   1.343       .  A
N650        C651   1.347       .  A
N650       Cu656   2.080       .  S
C651        C652   1.384       .  A
C651        H654   1.082       .  S
C652        C653   1.381       .  A
C652        C785   1.475       .  S
C653        H655   1.082       .  S
Cu656       N659   2.081       .  S
Cu657       N667   2.064       .  S
Cu658       N660   2.085       .  S
Cu658       N666   2.084       .  S
N659        C663   1.346       .  A
N660        C661   1.348       .  A
C661        C662   1.383       .  A
C661        H664   1.082       .  S
C663        H665   1.082       .  S
N666        N667   1.322       .  A
N666        C670   1.347       .  A
N667        C668   1.343       .  A
C668        C669   1.381       .  A
C668        H671   1.082       .  S
C669        C670   1.387       .  A
C669        C797   1.479       .  S
C670        H672   1.082       .  S
C673        C674   1.418   1_455  A
C673        C678   1.405       .  A
C673        C773   1.490       .  S
C674        C675   1.402       .  A
C675        C676   1.401       .  A
C676        C677   1.412       .  A
C677        C678   1.401   1_655  A
C677        C761   1.479       .  S
C678        H679   1.084       .  S
N681        N682   1.323       .  A
N681        C685   1.346       .  A
N681       Cu689   2.078       .  S
N682        C683   1.346       .  A
N682       Cu688   2.078       .  S
C683        C684   1.384       .  A
C683        H686   1.082       .  S
C684        C685   1.383       .  A
C684        C749   1.478       .  S
C685        H687   1.082       .  S
Cu688       N691   2.078       .  S
Cu690       N692   2.075       .  S
Cu690       N698   2.076       .  S
N691        C695   1.346       .  A
N692        C693   1.345       .  A
C693        H696   1.082       .  S
C694        C695   1.382   1_465  A
C694        C718   1.467       .  S
C695        H697   1.082       .  S
N698        N699   1.322       .  A
N698        C702   1.345       .  A
N699        C700   1.346   1_565  A
C700        C701   1.385   1_545  A
C700        H703   1.082       .  S
C701        C702   1.385       .  A
C701        C737   1.482       .  S
C702        H704   1.082       .  S
N705        N706   1.322       .  A
N705        C709   1.345       .  A
N705       Cu713   2.072       .  S
N706        C707   1.345       .  A
N706       Cu712   2.076       .  S
C707        C708   1.385       .  A
C707        H710   1.083       .  S
C708        C709   1.385       .  A
C708        C776   1.480       .  S
C709        H711   1.081       .  S
Cu712       N715   2.076       .  S
Cu714       N716   2.075       .  S
Cu714       N722   2.075       .  S
N715        C719   1.345       .  A
N716        C717   1.346       .  A
C717        H720   1.082       .  S
C718        C719   1.382       .  A
C719        H721   1.082       .  S
N722        N723   1.323   1_655  A
N722        C726   1.345       .  A
N723        C724   1.345       .  A
C724        C725   1.381       .  A
C724        H727   1.082       .  S
C725        C726   1.381   1_455  A
C725        C764   1.472       .  S
C726        H728   1.082       .  S
C729        C730   1.417   1_556  A
C729        C734   1.403       .  A
C729        C752   1.488       .  S
C730        C731   1.406       .  A
C730        C824   1.490       .  S
C731        C732   1.406       .  A
C731        H736   1.084       .  S
C732        C733   1.419   1_554  A
C732        C812   1.491       .  S
C733        C734   1.405       .  A
C733        C740   1.488       .  S
C734        H735   1.084       .  S
C737        C742   1.414       .  A
C738        C739   1.402       .  A
C738        H747   1.084       .  S
C739        S743   1.804       .  S
C740        C741   1.404   1_545  A
C741        C742   1.399       .  A
C741        H748   1.084       .  S
C742        S744   1.803       .  S
S743        H746   1.405       .  S
S744        H745   1.407       .  S
C749        C750   1.403   1_545  A
C750        C751   1.401       .  A
C750        H759   1.084       .  S
C751        C752   1.414   1_565  A
C751        S755   1.804       .  S
C753        C754   1.400       .  A
C753        H760   1.084       .  S
C754        S756   1.803       .  S
S755        H758   1.406       .  S
S756        H757   1.406       .  S
C761        C766   1.413       .  A
C762        C763   1.398       .  A
C762        H771   1.084       .  S
C763        S767   1.803       .  S
C764        C765   1.402   1_455  A
C765        C766   1.399       .  A
C765        H772   1.084       .  S
C766        S768   1.803       .  S
S767        H770   1.406       .  S
S768        H769   1.403       .  S
C773        C778   1.417   1_455  A
C774        C775   1.399       .  A
C774        H783   1.083       .  S
C775        S779   1.803       .  S
C776        C777   1.403   1_455  A
C777        C778   1.399       .  A
C777        H784   1.084       .  S
C778        S780   1.806       .  S
S779        H782   1.406       .  S
S780        H781   1.403       .  S
C785        C790   1.412       .  A
C786        C787   1.402       .  A
C786        H795   1.084       .  S
C787        S791   1.806       .  S
C788        C789   1.403       .  A
C789        C790   1.396       .  A
C789        H796   1.083       .  S
C790        S792   1.803       .  S
S791        H794   1.403       .  S
S792        H793   1.407       .  S
C797        C802   1.413       .  A
C798        C799   1.399       .  A
C798        H807   1.084       .  S
C799        S803   1.802       .  S
C800        C801   1.403       .  A
C801        C802   1.399       .  A
C801        H808   1.084       .  S
C802        S804   1.802       .  S
S803        H806   1.406       .  S
S804        H805   1.406       .  S
C809        C810   1.403   1_545  A
C810        C811   1.402       .  A
C810        H819   1.084       .  S
C811        C812   1.415   1_565  A
C811        S815   1.804   1_554  S
C813        C814   1.402       .  A
C813        H820   1.084       .  S
C814        S816   1.803       .  S
S815        H818   1.406       .  S
S816        H817   1.406       .  S
C821        C826   1.411       .  A
C822        C823   1.402       .  A
C822        H831   1.084       .  S
C823        S827   1.804   1_554  S
C824        C825   1.404   1_545  A
C825        C826   1.400       .  A
C825        H832   1.084       .  S
C826        S828   1.803       .  S
S827        H830   1.405   1_556  S
S828        H829   1.406       .  S
