geometry optimzed in LAMMPS
_audit_creation_date              2020-11-30 
_audit_creation_method            'lammps2cif' 
_symmetry_space_group_name_H-M    'P1' 
_symmetry_Int_Tables_number       1 
_symmetry_cell_setting            triclinic 
loop_ 
_symmetry_equiv_pos_as_xyz 
  x,y,z 
_cell_length_a                    25.257648581887526 
_cell_length_b                    25.694659661670332 
_cell_length_c                    49.460104529446646 
_cell_angle_alpha                 90.43497018878968 
_cell_angle_beta                  91.34382249839032 
_cell_angle_gamma                 91.22347987988095 
loop_ 
_atom_site_label 
_atom_site_type_symbol 
_atom_site_fract_x 
_atom_site_fract_y 
_atom_site_fract_z 
_atom_site_charge 
O1          O  0.95346255  0.38958551  0.73851888    -0.80040
O2          O  0.05211164  0.60466316  0.74000727    -0.80060
O3          O  0.93153295  0.55605971  0.70871848    -0.80070
O4          O  0.12756615  0.46332521  0.72788785    -0.80010
O5          O  0.94701058  0.61461655  0.74091630    -0.80130
O6          O  0.05243796  0.41765977  0.72394534    -0.80050
O7          O  0.05826861  0.53856960  0.71146370    -0.80040
O8          O  0.93695182  0.44876477  0.70847233    -0.80080
C9          C  0.93393435  0.40199494  0.71578924     1.09650
C10         C  0.06431766  0.58671333  0.71684593     1.09540
C11         C  0.93067579  0.60279139  0.71700214     1.09670
C12         C  0.10159384  0.42493112  0.71771591     1.09550
O13         O  0.03746855  0.37111575  0.77206989    -0.80040
O14         O  0.94261262  0.56225730  0.79250600    -0.80120
O15         O  0.89119059  0.44819861  0.76252317    -0.80050
O16         O  0.11022328  0.54250355  0.76330413    -0.80030
O17         O  0.05044969  0.55428170  0.79340854    -0.80080
O18         O  0.96150733  0.43780508  0.78974609    -0.80050
O19         O  0.08376023  0.44473077  0.77612933    -0.80010
O20         O  0.88194323  0.55161774  0.76032061    -0.80080
Co21       Co  0.00788792  0.43323352  0.75846426     1.51530
Co22       Co  0.99803664  0.57931322  0.76658358     1.51690
Co23       Co  0.91535168  0.50099223  0.73512056     1.51570
Co24       Co  0.06515078  0.49082883  0.74224068     1.51470
O25         O  0.99016533  0.50713391  0.75056729    -1.41970
C26         C  0.07730029  0.39596685  0.78193321     1.09580
C27         C  0.89526398  0.56616000  0.78417497     1.09670
C28         C  0.91185362  0.43451378  0.78515139     1.09610
C29         C  0.09811356  0.55778833  0.78668100     1.09580
C30         C  0.75785709  0.32499613  0.84790509     0.03230
C31         C  0.73233344  0.34543258  0.87033087    -0.12920
C32         C  0.68616251  0.32153637  0.88004189     0.00730
C33         C  0.66627326  0.27549236  0.86758409    -0.11450
C34         C  0.69147255  0.25448335  0.84505503     0.03220
C35         C  0.73789153  0.27888253  0.83574846    -0.10870
H36         H  0.74728203  0.38132960  0.87964581     0.08820
H37         H  0.62906197  0.25848146  0.87400554     0.06340
H38         H  0.75638481  0.26388663  0.81781982     0.06190
O39         O  0.57801484  0.05315640  0.77877013    -0.80040
O40         O  0.37625850  0.93910289  0.76115445    -0.80060
O41         O  0.46631689  0.06166431  0.78612343    -0.80070
O42         O  0.54368613  0.93409166  0.79316557    -0.80010
O43         O  0.39143552  0.04646649  0.76295969    -0.80130
O44         O  0.60709460  0.95143543  0.76606071    -0.80050
O45         O  0.43910748  0.92541473  0.79132562    -0.80040
O46         O  0.54151378  0.12425765  0.76321761    -0.80080
C47         C  0.57487609  0.10351105  0.77886960     1.09650
C48         C  0.39123397  0.92219853  0.78416771     1.09540
C49         C  0.41683493  0.06729077  0.78317930     1.09670
C50         C  0.59178421  0.93160188  0.78788891     1.09550
O51         O  0.55973814  0.95588612  0.71324647    -0.80040
O52         O  0.43605269  0.03880607  0.70793016    -0.80120
O53         O  0.55386093  0.06672257  0.71843001    -0.80050
O54         O  0.43927934  0.87432071  0.73797890    -0.80030
O55         O  0.42920157  0.93786095  0.70946285    -0.80080
O56         O  0.62804358  0.03103505  0.73254506    -0.80050
O57         O  0.54920341  0.88658584  0.73858380    -0.80010
O58         O  0.45442216  0.10322397  0.73417941    -0.80080
Co59       Co  0.56380713  0.00314811  0.74512241     1.51530
Co60       Co  0.41238927  0.99054840  0.73591747     1.51690
Co61       Co  0.50910057  0.06000835  0.75351965     1.51570
Co62       Co  0.49283978  0.90964489  0.76474980     1.51470
O63         O  0.48709971  0.98399841  0.75075722    -1.41970
C64         C  0.56769212  0.90817747  0.71747567     1.09180
C65         C  0.43149169  0.08609152  0.71302075     1.09670
C66         C  0.60450521  0.06109648  0.71636036     1.09610
C67         C  0.42197700  0.89102063  0.71524298     1.09580
C68         C  0.29149032  0.76831102  0.85140352     0.03230
C69         C  0.24814501  0.73805547  0.84157623    -0.12920
C70         C  0.23589754  0.68950169  0.85263533     0.00730
C71         C  0.26308565  0.67341394  0.87585301    -0.11450
C72         C  0.30536158  0.70359183  0.88694275     0.03220
C73         C  0.31969284  0.75104473  0.87460749    -0.10870
H74         H  0.22587710  0.75038017  0.82383856     0.08820
H75         H  0.25417543  0.63529663  0.88405553     0.06340
H76         H  0.35506737  0.77190293  0.88174475     0.06190
C77         C  0.69082435  0.76176610  0.84367599     0.03230
C78         C  0.65935944  0.73511782  0.86271343    -0.12920
C79         C  0.67566272  0.68758215  0.87369100     0.00730
C80         C  0.72160188  0.66466435  0.86464855    -0.11450
C81         C  0.75180108  0.68908970  0.84508625     0.03220
C82         C  0.73831994  0.73860398  0.83590654    -0.10870
H83         H  0.62172993  0.75020531  0.86871919     0.08820
H84         H  0.73191741  0.62612203  0.87156159     0.06340
H85         H  0.76466215  0.75758897  0.82201547     0.06190
C86         C  0.24368920  0.29460146  0.84342239     0.03230
C87         C  0.26828735  0.25245708  0.83097134    -0.12920
C88         C  0.31269107  0.22919664  0.84310518     0.00730
C89         C  0.33366037  0.25005814  0.86758700    -0.11450
C90         C  0.30949224  0.29196098  0.88059912     0.03220
C91         C  0.26346809  0.31275848  0.86860502    -0.10870
H92         H  0.25402858  0.23902565  0.81124422     0.08820
H93         H  0.36961109  0.23422124  0.87610765     0.06340
H94         H  0.24315321  0.34380904  0.87868109     0.06190
C95         C  0.27310330  0.20212719  0.65342397     0.03230
C96         C  0.24936831  0.24433125  0.66624722    -0.12920
C97         C  0.20544138  0.26873319  0.65429179     0.00730
C98         C  0.18449672  0.24968118  0.62947174    -0.11450
C99         C  0.20728818  0.20726107  0.61639405     0.03220
C100        C  0.25288345  0.18522836  0.62802682    -0.10870
H101        H  0.26342843  0.25656576  0.68621069     0.08820
H102        H  0.14933019  0.26693208  0.62076006     0.06340
H103        H  0.27194078  0.15381497  0.61757303     0.06190
C104        C  0.18834669  0.72139711  0.64901039     0.03230
C105        C  0.23527946  0.74234199  0.66057759    -0.12920
C106        C  0.26394994  0.78190884  0.64762459     0.00730
C107        C  0.24441952  0.80034201  0.62249036    -0.11450
C108        C  0.19628553  0.78074095  0.61099822     0.03220
C109        C  0.17023162  0.73913917  0.62389774    -0.10870
H110        H  0.24755943  0.72977368  0.68059196     0.08820
H111        H  0.26501672  0.83201269  0.61272235     0.06340
H112        H  0.13340209  0.72299498  0.61548363     0.06190
C113        C  0.74585406  0.17937843  0.65059370     0.03230
C114        C  0.77111329  0.16023494  0.62766901    -0.12920
C115        C  0.81742406  0.18470036  0.61863949     0.00730
C116        C  0.83732933  0.22937869  0.63193825    -0.11450
C117        C  0.81271003  0.24856922  0.65477518     0.03220
C118        C  0.76641615  0.22416059  0.66392536    -0.10870
H119        H  0.75734374  0.12392122  0.61834295     0.08820
H120        H  0.87442056  0.24705459  0.62569606     0.06340
H121        H  0.74921266  0.23720330  0.68260314     0.06190
C122        C  0.81489100  0.75764704  0.65655395     0.03230
C123        C  0.76595368  0.77359360  0.66622282    -0.12920
C124        C  0.74214245  0.82001735  0.65725457     0.00730
C125        C  0.76797037  0.84806187  0.63651710    -0.11450
C126        C  0.81464119  0.82950468  0.62501015     0.03220
C127        C  0.83798699  0.78466084  0.63532329    -0.10870
H128        H  0.74786814  0.74972230  0.68150820     0.08820
H129        H  0.75395305  0.88539448  0.62992285     0.06340
H130        H  0.87591479  0.77266837  0.62790066     0.06190
O131        O  0.41087784  0.44491710  0.97468320    -0.80040
O132        O  0.42090240  0.52640789  0.03519628    -0.80060
O133        O  0.44102953  0.40916523  0.02966472    -0.80070
O134        O  0.47154857  0.61160037  0.97725808    -0.80010
O135        O  0.45858434  0.45031252  0.06820519    -0.80130
O136        O  0.41155866  0.54941010  0.97228422    -0.80050
O137        O  0.47206559  0.59705860  0.03195035    -0.80040
O138        O  0.46578354  0.38250214  0.97780815    -0.80080
C139        C  0.42188340  0.39888516  0.96900982     1.09650
C140        C  0.42956891  0.57454211  0.03974658     1.09540
C141        C  0.43255252  0.41552628  0.05515501     1.09670
C142        C  0.42618277  0.59584802  0.96861288     1.09550
O143        O  0.50978200  0.54893121  0.94310180    -0.80040
O144        O  0.55071718  0.43698800  0.04220759    -0.80120
O145        O  0.56775815  0.42961379  0.98167943    -0.80050
O146        O  0.57910371  0.55342497  0.02865827    -0.80030
O147        O  0.52319812  0.53202829  0.05942936    -0.80080
O148        O  0.51351195  0.44477160  0.94675270    -0.80050
O149        O  0.57300567  0.56415883  0.97375439    -0.80010
O150        O  0.53418927  0.36217771  0.02063205    -0.80080
Co151      Co  0.46168030  0.49676450  0.96125029     1.51530
Co152      Co  0.48278551  0.48102978  0.03607563     1.51690
Co153      Co  0.50747374  0.42480813  0.00594823     1.51570
Co154      Co  0.52335975  0.57658869  0.00293236     1.51470
O155        O  0.49580702  0.50148920  0.99813566    -1.41970
C156        C  0.55591794  0.56647137  0.94957176     1.09580
C157        C  0.55917439  0.38796061  0.03900634     1.09670
C158        C  0.55749331  0.42850031  0.95646116     1.09610
C159        C  0.56781135  0.55069420  0.05325861     1.09580
C160        C  0.31240388  0.74958648  0.15351970     0.03230
C161        C  0.33151829  0.72811348  0.12960638    -0.12920
C162        C  0.30618313  0.68444781  0.11756101     0.00730
C163        C  0.26020461  0.66324533  0.12911269    -0.11450
C164        C  0.23990634  0.68463380  0.15301455     0.03220
C165        C  0.26610975  0.72837144  0.16474476    -0.10870
H166        H  0.36852671  0.74266448  0.12160498     0.08820
H167        H  0.24136651  0.62910139  0.11982081     0.06340
H168        H  0.25234759  0.74425054  0.18361520     0.06190
C169        C  0.76754560  0.29581297  0.15336598     0.03230
C170        C  0.74159197  0.31799329  0.13069201    -0.12920
C171        C  0.69572080  0.29373307  0.11901792     0.00730
C172        C  0.67674776  0.24701718  0.13007237    -0.11450
C173        C  0.69940171  0.22715433  0.15362722     0.03220
C174        C  0.74599023  0.24994100  0.16441452    -0.10870
H175        H  0.75487535  0.35550327  0.12333424     0.08820
H176        H  0.64111387  0.22825123  0.12171333     0.06340
H177        H  0.76386973  0.23293091  0.18230582     0.06190
C178        C  0.68899133  0.74882224  0.15771428     0.03230
C179        C  0.74252943  0.74385655  0.16494259    -0.12920
C180        C  0.77088950  0.70030151  0.15657638     0.00730
C181        C  0.74587683  0.66473807  0.13823010    -0.11450
C182        C  0.69331614  0.67169049  0.12944483     0.03220
C183        C  0.66496609  0.71358669  0.13946099    -0.10870
H184        H  0.76083262  0.77297958  0.17824924     0.08820
H185        H  0.76571651  0.62989334  0.13194521     0.06340
H186        H  0.62343395  0.71745345  0.13398004     0.06190
O187        O  0.44837188  0.88843861  0.24048624    -0.80040
O188        O  0.54567692  0.10500357  0.23598267    -0.80060
O189        O  0.37251511  0.02751234  0.22166749    -0.80070
O190        O  0.56407343  0.93666422  0.21036953    -0.80010
O191        O  0.44613329  0.07635235  0.22150769    -0.80130
O192        O  0.55328985  0.88112202  0.24356624    -0.80050
O193        O  0.55921195  0.04253749  0.20739818    -0.80040
O194        O  0.44115398  0.94931742  0.20932814    -0.80080
C195        C  0.43504203  0.90219491  0.21658156     1.09650
C196        C  0.56394705  0.08992574  0.21372390     1.09540
C197        C  0.39753276  0.06745334  0.21349527     1.09670
C198        C  0.56697525  0.89107523  0.21948706     1.09550
O199        O  0.55708800  0.94042674  0.29364146    -0.80040
O200        O  0.46354160  0.12586505  0.26935158    -0.80120
O201        O  0.38945354  0.95363843  0.25964458    -0.80050
O202        O  0.60973377  0.04999818  0.26147772    -0.80030
O203        O  0.54173299  0.06229999  0.28822986    -0.80080
O204        O  0.44817139  0.94479622  0.29200987    -0.80050
O205        O  0.61766977  0.94638662  0.26257134    -0.80010
O206        O  0.41613063  0.05215357  0.27076321    -0.80080
Co207      Co  0.50193340  0.91835166  0.26728667     1.51530
Co208      Co  0.49268358  0.06329292  0.25660683     1.51690
Co209      Co  0.43474946  0.00225932  0.23839227     1.51570
Co210      Co  0.58311044  0.99382866  0.23543143     1.51470
O211        O  0.50912954  0.98872679  0.24979067    -1.41970
C212        C  0.60423933  0.93472692  0.28646483     1.09580
C213        C  0.42383833  0.10043336  0.27796602     1.09670
C214        C  0.40083680  0.93975054  0.28351548     1.09610
C215        C  0.59081046  0.06724531  0.28345014     1.09580
O216        O  0.11579420  0.54380162  0.26796877    -0.80040
O217        O  0.89180723  0.45128710  0.25937101    -0.80060
O218        O  0.94489541  0.56785042  0.28957905    -0.80070
O219        O  0.03444634  0.37274032  0.26873958    -0.80010
O220        O  0.88476699  0.55703466  0.25716977    -0.80130
O221        O  0.07819110  0.44408908  0.28141058    -0.80050
O222        O  0.96187970  0.44205509  0.28627424    -0.80040
O223        O  0.04898804  0.55479023  0.29278311    -0.80080
C224        C  0.09689680  0.56391204  0.28894311     1.09650
C225        C  0.91284649  0.43468032  0.28144709     1.09540
C226        C  0.89771320  0.57139197  0.28111956     1.09670
C227        C  0.06946477  0.39450429  0.28379170     1.09550
O228        O  0.13371996  0.45772486  0.23612052    -0.80040
O229        O  0.94020446  0.55940048  0.20668742    -0.80120
O230        O  0.06157448  0.60524231  0.23885998    -0.80050
O231        O  0.95419688  0.39381876  0.23476461    -0.80030
O232        O  0.94254459  0.45425760  0.20547058    -0.80080
O233        O  0.07227920  0.53386623  0.21454656    -0.80050
O234        O  0.05707710  0.42249398  0.22246531    -0.80010
O235        O  0.95486520  0.61954248  0.23804951    -0.80080
Co236      Co  0.07075839  0.49005865  0.24669861     1.51530
Co237      Co  0.91945732  0.50538233  0.23253441     1.51690
Co238      Co  0.00262846  0.58300157  0.26462121     1.51570
Co239      Co  0.00921275  0.43636241  0.25559519     1.51470
O240        O  0.99388598  0.51090179  0.24895696    -1.41970
C241        C  0.10819751  0.42512713  0.22118902     1.09580
C242        C  0.93919219  0.60633224  0.21428128     1.09670
C243        C  0.07980665  0.58229524  0.21799729     1.09610
C244        C  0.93546154  0.40777429  0.21217522     1.09580
C245        C  0.22445946  0.28852302  0.15262347     0.03230
C246        C  0.24472100  0.31034515  0.12911447    -0.12920
C247        C  0.28903127  0.28897243  0.11683893     0.00730
C248        C  0.30975835  0.24257592  0.12696702    -0.11450
C249        C  0.28798626  0.21912406  0.14978528     0.03220
C250        C  0.24545616  0.24226892  0.16261576    -0.10870
H251        H  0.22998710  0.34747312  0.12229407     0.08820
H252        H  0.34588419  0.22746337  0.11885800     0.06340
H253        H  0.23203875  0.22704016  0.18172258     0.06190
C254        C  0.26586204  0.19333508  0.34492394     0.03230
C255        C  0.24199039  0.23927419  0.33597099    -0.12920
C256        C  0.19614196  0.25711541  0.34826732     0.00730
C257        C  0.17573068  0.23018182  0.37038884    -0.11450
C258        C  0.19916582  0.18451235  0.37948208     0.03220
C259        C  0.24451272  0.16658964  0.36698180    -0.10870
H260        H  0.25606315  0.25830996  0.31794113     0.08820
H261        H  0.13898558  0.24242981  0.37910916     0.06340
H262        H  0.26177842  0.13052847  0.37373396     0.06190
C263        C  0.73910738  0.20145744  0.34269730     0.03230
C264        C  0.75909375  0.24713597  0.33073316    -0.12920
C265        C  0.80181291  0.27568180  0.34303255     0.00730
C266        C  0.82404025  0.25709923  0.36756170    -0.11450
C267        C  0.80626146  0.21009674  0.37881766     0.03220
C268        C  0.76202248  0.18423042  0.36695151    -0.10870
H269        H  0.74357818  0.25815222  0.31106231     0.08820
H270        H  0.85745116  0.27747397  0.37716319     0.06340
H271        H  0.74694094  0.14860471  0.37584072     0.06190
C272        C  0.19417097  0.74006064  0.34729039     0.03230
C273        C  0.17233603  0.76213151  0.37070214    -0.12920
C274        C  0.19005688  0.81112889  0.38047620     0.00730
C275        C  0.23158672  0.83710972  0.36779215    -0.11450
C276        C  0.25412899  0.81582894  0.34476245     0.03220
C277        C  0.23543300  0.76744230  0.33461153    -0.10870
H278        H  0.14001773  0.74260249  0.38075106     0.08820
H279        H  0.24338118  0.87601203  0.37454547     0.06340
H280        H  0.25144985  0.75250611  0.31603657     0.06190
C281        C  0.79229472  0.72195745  0.34582260     0.03230
C282        C  0.75076208  0.75250011  0.33557907    -0.12920
C283        C  0.74030335  0.80089506  0.34708653     0.00730
C284        C  0.76770515  0.81765975  0.37033807    -0.11450
C285        C  0.80679044  0.78689409  0.38221299     0.03220
C286        C  0.82009468  0.73992877  0.36939508    -0.10870
H287        H  0.72753235  0.74028270  0.31791930     0.08820
H288        H  0.76027222  0.85615204  0.37832843     0.06340
H289        H  0.85348048  0.71896734  0.37735490     0.06190
O290        O  0.99232117  0.05788567  0.55349299    -0.80040
O291        O  0.91332148  0.94765354  0.46377650    -0.80060
O292        O  0.97455276  0.11752396  0.47009327    -0.80070
O293        O  0.94704450  0.91897529  0.52236297    -0.80010
O294        O  0.91638183  0.05454443  0.46326283    -0.80130
O295        O  0.98912645  0.95611083  0.55552142    -0.80050
O296        O  0.97110937  0.88810609  0.47346808    -0.80040
O297        O  0.95080213  0.09088816  0.51951920    -0.80080
C298        C  0.95502381  0.08466336  0.54441588     1.09650
C299        C  0.92714990  0.90072049  0.46292303     1.09540
C300        C  0.93060657  0.10127377  0.45969612     1.09670
C301        C  0.95056389  0.92849343  0.54718682     1.09550
O302        O  0.08778190  0.94561838  0.52752586    -0.80040
O303        O  0.02106989  0.05233153  0.44006719    -0.80120
O304        O  0.05125533  0.13487236  0.51449467    -0.80050
O305        O  0.07241283  0.93984426  0.47604118    -0.80030
O306        O  0.01781362  0.94798093  0.44152258    -0.80080
O307        O  0.08948565  0.06045863  0.52454807    -0.80050
O308        O  0.04302134  0.87306564  0.51602375    -0.80010
O309        O  0.07444913  0.06455969  0.47497261    -0.80080
Co310      Co  0.03527937  0.00472458  0.53511180     1.51530
Co311      Co  0.96793140  0.00090865  0.45503884     1.51690
Co312      Co  0.01374216  0.07572407  0.49863187     1.51570
Co313      Co  0.01114968  0.93225711  0.50070265     1.51470
O314        O  0.99033791  0.00330723  0.49542794    -1.41970
C315        C  0.08038238  0.89567231  0.52948547     1.09580
C316        C  0.06571182  0.06711884  0.44995659     1.09670
C317        C  0.08629948  0.11025588  0.52802290     1.09610
C318        C  0.06214807  0.93393242  0.45104569     1.09580
C319        C  0.89261900  0.80497117  0.40726150    -0.21210
C320        C  0.83710665  0.80758296  0.40618035    -0.09250
C321        C  0.81140191  0.83524434  0.42666097     0.29610
C322        C  0.84091229  0.86363608  0.44612376    -0.21210
C323        C  0.89628216  0.86320721  0.44617423    -0.09260
C324        C  0.92202841  0.83212020  0.42724396     0.29620
F325        F  0.97573218  0.83180435  0.42648678    -0.19780
H326        H  0.91360018  0.78465957  0.39168346     0.17980
H327        H  0.82058150  0.88716485  0.46071159     0.17990
F328        F  0.75773021  0.83632748  0.42732789    -0.19770
C329        C  0.11454823  0.86761943  0.38877893    -0.21210
C330        C  0.15788303  0.84094388  0.39937893    -0.09250
C331        C  0.17226166  0.84734977  0.42681651     0.29610
C332        C  0.14220741  0.87905656  0.44359981    -0.21210
C333        C  0.09795522  0.90526370  0.43305987    -0.09260
C334        C  0.08501974  0.89962612  0.40522461     0.29620
F335        F  0.04344254  0.92456962  0.39371401    -0.19780
H336        H  0.10390180  0.86403164  0.36747090     0.17980
H337        H  0.15298759  0.88236268  0.46488648     0.17990
F338        F  0.21494368  0.82271193  0.43731900    -0.19770
C339        C  0.87762870  0.10488608  0.41742321    -0.21210
C340        C  0.89956050  0.13180858  0.43992835    -0.09250
C341        C  0.89171872  0.18564318  0.44227912     0.29610
C342        C  0.86073039  0.21135921  0.42266315    -0.21210
C343        C  0.83807999  0.18379884  0.40030521    -0.09260
C344        C  0.84818841  0.13033722  0.39770431     0.29620
F345        F  0.83150377  0.10267009  0.37548334    -0.19780
H346        H  0.88449266  0.06369902  0.41464903     0.17980
H347        H  0.85415375  0.25263679  0.42502755     0.17990
F348        F  0.91270468  0.21290292  0.46369804    -0.19770
C349        C  0.12914677  0.14020335  0.44213361    -0.21210
C350        C  0.10476582  0.09347957  0.43290009    -0.09250
C351        C  0.11487524  0.07516297  0.40676660     0.29610
C352        C  0.14834493  0.10368863  0.39001575    -0.21210
C353        C  0.17082449  0.15148247  0.39884973    -0.09260
C354        C  0.16123438  0.16953889  0.42507535     0.29620
F355        F  0.18180473  0.21606870  0.43385975    -0.19780
H356        H  0.12124207  0.15523977  0.46213592     0.17980
H357        H  0.15490181  0.08966322  0.36967415     0.17990
F358        F  0.09194248  0.03014079  0.39737418    -0.19770
C359        C  0.19090634  0.38230242  0.20796725    -0.21210
C360        C  0.13687631  0.39069925  0.20279641    -0.09250
C361        C  0.11108688  0.36420105  0.18098023     0.29610
C362        C  0.13932996  0.33019146  0.16467636    -0.21210
C363        C  0.19302583  0.32148100  0.17032581    -0.09260
C364        C  0.21867847  0.34789840  0.19200769     0.29620
F365        F  0.27104451  0.34109772  0.19738218    -0.19780
H366        H  0.21167948  0.40188407  0.22468394     0.17980
H367        H  0.11944063  0.31070145  0.14766740     0.17990
F368        F  0.05903238  0.37168369  0.17515620    -0.19770
C369        C  0.20233025  0.65569432  0.32086179    -0.21210
C370        C  0.17042678  0.69191798  0.33422634    -0.09250
C371        C  0.11513331  0.68368679  0.33314421     0.29610
C372        C  0.09284287  0.64065639  0.31947878    -0.21210
C373        C  0.12433502  0.60526578  0.30553899    -0.09260
C374        C  0.17955232  0.61314464  0.30635400     0.29620
F375        F  0.21137273  0.58012256  0.29310164    -0.19780
H376        H  0.24498106  0.66070173  0.32130671     0.17980
H377        H  0.05007444  0.63661548  0.31875857     0.17990
F378        F  0.08183474  0.71891209  0.34365157    -0.19770
C379        C  0.86539658  0.59892995  0.32626380    -0.21210
C380        C  0.86032141  0.59992885  0.29796339    -0.09250
C381        C  0.82566171  0.63532336  0.28596864     0.29610
C382        C  0.80271204  0.67372330  0.30164322    -0.21210
C383        C  0.81052984  0.67568797  0.33002038    -0.09260
C384        C  0.83938614  0.63516883  0.34224115     0.29620
F385        F  0.84334310  0.63052640  0.36950771    -0.19780
H386        H  0.89072574  0.57081123  0.33600060     0.17980
H387        H  0.78134038  0.70344092  0.29091981     0.17990
F388        F  0.81738375  0.63581739  0.25878875    -0.19770
C389        C  0.82717428  0.39411393  0.29764580    -0.21210
C390        C  0.88269569  0.39941767  0.29962507    -0.09250
C391        C  0.91028956  0.36592597  0.31716299     0.29610
C392        C  0.88362445  0.32658869  0.33088583    -0.21210
C393        C  0.82822315  0.32031827  0.32878944    -0.09260
C394        C  0.80002512  0.35559309  0.31235772     0.29620
F395        F  0.74634876  0.35320564  0.31050836    -0.19780
H396        H  0.80478571  0.41940597  0.28444554     0.17980
H397        H  0.90733515  0.29981906  0.34252158     0.17990
F398        F  0.96378284  0.36908303  0.32019857    -0.19770
C399        C  0.14994083  0.37951758  0.31304454    -0.21210
C400        C  0.09950896  0.36284857  0.30337665    -0.09250
C401        C  0.08051481  0.31281949  0.31018201     0.29610
C402        C  0.11174226  0.28002029  0.32569570    -0.21210
C403        C  0.16282200  0.29568386  0.33442724    -0.09260
C404        C  0.18176848  0.34590296  0.32824045     0.29620
F405        F  0.23106197  0.36200860  0.33654384    -0.19780
H406        H  0.16563531  0.41760400  0.30781937     0.17980
H407        H  0.09672864  0.24119060  0.32999533     0.17990
F408        F  0.03239626  0.29460875  0.30113171    -0.19770
C409        C  0.32660921  0.08982829  0.17952329    -0.21210
C410        C  0.37153381  0.10479533  0.19528474    -0.09250
C411        C  0.38942529  0.15710137  0.19499321     0.29610
C412        C  0.36260683  0.19347809  0.17942960    -0.21210
C413        C  0.31751080  0.17863398  0.16405325    -0.09260
C414        C  0.29970530  0.12657599  0.16393849     0.29620
F415        F  0.25619163  0.11159197  0.14900720    -0.19780
H416        H  0.31202868  0.04986723  0.17951636     0.17980
H417        H  0.37612773  0.23380794  0.17996011     0.17990
F418        F  0.43113093  0.17385186  0.21081962    -0.19770
C419        C  0.72680288  0.86729830  0.31192988    -0.21210
C420        C  0.70592929  0.83727716  0.33281469    -0.09250
C421        C  0.65329797  0.84318695  0.34022183     0.29610
C422        C  0.62112941  0.87763021  0.32606786    -0.21210
C423        C  0.64114033  0.90636034  0.30426667    -0.09260
C424        C  0.69478528  0.90168915  0.29769469     0.29620
F425        F  0.71605560  0.92927313  0.27715700    -0.19780
H426        H  0.76780921  0.86349698  0.30645983     0.17980
H427        H  0.57996935  0.88006504  0.33145869     0.17990
F428        F  0.63274283  0.81452354  0.36054936    -0.19770
C429        C  0.71302394  0.11563605  0.32203045    -0.21210
C430        C  0.69954391  0.16704846  0.32836297    -0.09250
C431        C  0.64852084  0.18409449  0.32147358     0.29610
C432        C  0.61179275  0.15008547  0.30841023    -0.21210
C433        C  0.62594841  0.09915116  0.30146717    -0.09260
C434        C  0.67691690  0.08220711  0.30839312     0.29620
F435        F  0.69193735  0.03346219  0.30171571    -0.19780
H436        H  0.75214229  0.10174306  0.32716639     0.17980
H437        H  0.57307535  0.16421143  0.30265011     0.17990
F438        F  0.63427583  0.23343317  0.32739708    -0.19770
C439        C  0.35194928  0.19940592  0.32063164    -0.21210
C440        C  0.30817882  0.16949255  0.32899928    -0.09250
C441        C  0.30364677  0.11694315  0.32094132     0.29610
C442        C  0.34212088  0.09493192  0.30499002    -0.21210
C443        C  0.38581524  0.12469304  0.29636269    -0.09260
C444        C  0.39060681  0.17731475  0.30450440     0.29620
F445        F  0.43199987  0.20766632  0.29662851    -0.19780
H446        H  0.35605858  0.24001791  0.32653129     0.17980
H447        H  0.33684701  0.05451588  0.29889885     0.17990
F448        F  0.26069122  0.08729892  0.32739872    -0.19770
C449        C  0.37177481  0.90187176  0.32723253    -0.21210
C450        C  0.36126611  0.91160826  0.29972617    -0.09250
C451        C  0.31517099  0.88957741  0.28728011     0.29610
C452        C  0.28115283  0.85780527  0.30200366    -0.21210
C453        C  0.29200667  0.84770747  0.32935877    -0.09260
C454        C  0.33730428  0.87044691  0.34201089     0.29620
F455        F  0.34885961  0.86117762  0.36845618    -0.19780
H456        H  0.40712061  0.91798268  0.33722255     0.17980
H457        H  0.24592514  0.84131459  0.29205456     0.17990
F458        F  0.30366036  0.89713078  0.26066390    -0.19770
C459        C  0.87788505  0.67928373  0.21048821    -0.21210
C460        C  0.90941541  0.64320357  0.19744983    -0.09250
C461        C  0.90192647  0.63477091  0.16951493     0.29610
C462        C  0.85987418  0.65804669  0.15564241    -0.21210
C463        C  0.82303213  0.68790796  0.16963806    -0.09260
C464        C  0.83384684  0.69975310  0.19724473     0.29620
F465        F  0.79914689  0.72571107  0.21262478    -0.19780
H466        H  0.88343045  0.68692420  0.23194601     0.17980
H467        H  0.85426003  0.64975135  0.13425856     0.17990
F468        F  0.93304233  0.60138102  0.15603558    -0.19770
C469        C  0.59460454  0.85579189  0.17498474    -0.21210
C470        C  0.59326610  0.85136637  0.20329480    -0.09250
C471        C  0.62251592  0.81229551  0.21616285     0.29610
C472        C  0.65386054  0.77966122  0.20102761    -0.21210
C473        C  0.65609050  0.78483241  0.17288264    -0.09260
C474        C  0.62538530  0.82233658  0.15978854     0.29620
F475        F  0.62652626  0.82759573  0.13252195    -0.19780
H476        H  0.57248157  0.88572512  0.16469640     0.17980
H477        H  0.67665592  0.75018823  0.21131695     0.17990
F478        F  0.62309104  0.80722223  0.24347415    -0.19770
C479        C  0.64835103  0.14341078  0.15755122    -0.21210
C480        C  0.66817262  0.18972755  0.16948690    -0.09250
C481        C  0.65199895  0.20379193  0.19548924     0.29610
C482        C  0.61663949  0.17191900  0.20927711    -0.21210
C483        C  0.59697360  0.12528642  0.19752445    -0.09260
C484        C  0.61334176  0.11109654  0.17148709     0.29620
F485        F  0.59535044  0.06631603  0.15939745    -0.19780
H486        H  0.65968944  0.13259010  0.13731238     0.17980
H487        H  0.60519156  0.18354017  0.22937903     0.17990
F488        F  0.66872583  0.24944833  0.20714381    -0.19770
C489        C  0.89490925  0.37514119  0.16834646    -0.21210
C490        C  0.89705253  0.37446388  0.19674966    -0.09250
C491        C  0.85727280  0.34741387  0.21056760     0.29610
C492        C  0.81547098  0.32286385  0.19629501    -0.21210
C493        C  0.81298978  0.32290594  0.16781090    -0.09260
C494        C  0.85379667  0.34883635  0.15391546     0.29620
F495        F  0.85436057  0.34841057  0.12649097    -0.19780
H496        H  0.92499874  0.39624435  0.15736690     0.17980
H497        H  0.78416282  0.30489727  0.20778654     0.17990
F498        F  0.85676372  0.34749069  0.23800483    -0.19770
C499        C  0.15708691  0.68816320  0.18081257    -0.21210
C500        C  0.19524641  0.65857793  0.16749567    -0.09250
C501        C  0.19270965  0.60402237  0.17002900     0.29610
C502        C  0.15348957  0.58015357  0.18539187    -0.21210
C503        C  0.11640470  0.60964760  0.19936985    -0.09260
C504        C  0.11835722  0.66411886  0.19677079     0.29620
F505        F  0.08319975  0.69412070  0.20972229    -0.19780
H506        H  0.15773302  0.73018846  0.17920467     0.17980
H507        H  0.15392379  0.53818707  0.18738614     0.17990
F508        F  0.23019661  0.57358141  0.15923232    -0.19770
C509        C  0.36298227  0.83510594  0.15670157    -0.21210
C510        C  0.34483296  0.78898073  0.16890200    -0.09250
C511        C  0.35925867  0.77952299  0.19596449     0.29610
C512        C  0.38974923  0.81597700  0.21069801    -0.21210
C513        C  0.40669172  0.86307283  0.19900952    -0.09260
C514        C  0.39337456  0.87219358  0.17165655     0.29620
F515        F  0.40938463  0.91672351  0.15942199    -0.19780
H516        H  0.35283627  0.84273049  0.13571742     0.17980
H517        H  0.39925857  0.80737330  0.23164272     0.17990
F518        F  0.34460246  0.73444009  0.20814294    -0.19770
C519        C  0.35863397  0.60917072  0.10334690    -0.21210
C520        C  0.33367598  0.65544030  0.09628687    -0.09250
C521        C  0.34016744  0.67558034  0.07015112     0.29610
C522        C  0.37043256  0.64881690  0.05122935    -0.21210
C523        C  0.39486691  0.60215026  0.05838852    -0.09260
C524        C  0.38975889  0.58340201  0.08479761     0.29620
F525        F  0.41855313  0.54254708  0.09330291    -0.19780
H526        H  0.35601734  0.59433490  0.12373962     0.17980
H527        H  0.37526392  0.66466890  0.03117667     0.17990
F528        F  0.31772766  0.72117837  0.06311477    -0.19770
C529        C  0.61701916  0.61190556  0.11896874    -0.21210
C530        C  0.66590959  0.63340468  0.11141058    -0.09250
C531        C  0.68549827  0.62186334  0.08578322     0.29610
C532        C  0.65454603  0.59232042  0.06730011    -0.21210
C533        C  0.60392501  0.57363995  0.07423678    -0.09260
C534        C  0.58626075  0.58211988  0.10067888     0.29620
F535        F  0.53798950  0.56443023  0.10848517    -0.19780
H536        H  0.60174484  0.61986975  0.13883651     0.17980
H537        H  0.66926310  0.58599271  0.04717119     0.17990
F538        F  0.73277581  0.64209814  0.07799770    -0.19770
C539        C  0.37962164  0.33274500  0.06051655    -0.21210
C540        C  0.39188244  0.38407914  0.06894019    -0.09250
C541        C  0.36712132  0.40418082  0.09178303     0.29610
C542        C  0.33225404  0.37342181  0.10629237    -0.21210
C543        C  0.32109669  0.32165191  0.09859324    -0.09260
C544        C  0.34485682  0.30141589  0.07540399     0.29620
F545        F  0.33508116  0.25141579  0.06741904    -0.19780
H546        H  0.39842171  0.31633517  0.04303483     0.17980
H547        H  0.31561003  0.38975267  0.12439011     0.17990
F548        F  0.37692959  0.45351532  0.10052365    -0.19770
C549        C  0.60685160  0.31672618  0.10012677    -0.21210
C550        C  0.66239295  0.31929175  0.09791689    -0.09250
C551        C  0.68409370  0.34490405  0.07548891     0.29610
C552        C  0.65054317  0.36679486  0.05576127    -0.21210
C553        C  0.59531745  0.36224386  0.05793591    -0.09260
C554        C  0.57377064  0.33708272  0.08019948     0.29620
F555        F  0.52046209  0.33345782  0.08303872    -0.19780
H556        H  0.58862787  0.29913767  0.11752897     0.17980
H557        H  0.66752316  0.38707320  0.03879663     0.17990
F558        F  0.73729287  0.34788178  0.07234018    -0.19770
C559        C  0.88646290  0.89215072  0.61345480    -0.21210
C560        C  0.84400466  0.85993524  0.60471480    -0.09250
C561        C  0.83493971  0.85187217  0.57682999     0.29610
C562        C  0.86876811  0.87514758  0.55802932    -0.21210
C563        C  0.91231454  0.90654421  0.56679728    -0.09260
C564        C  0.92020645  0.91536237  0.59486082     0.29620
F565        F  0.96159054  0.94505588  0.60459065    -0.19780
H566        H  0.89449959  0.89800071  0.63490237     0.17980
H567        H  0.86161450  0.86761046  0.53666030     0.17990
F568        F  0.79462805  0.81999587  0.56787637    -0.19770
C569        C  0.90258587  0.14563315  0.60749472    -0.21210
C570        C  0.85111947  0.15848421  0.59917122    -0.09250
C571        C  0.83330746  0.14656208  0.57272149     0.29610
C572        C  0.86739253  0.12283591  0.55467136    -0.21210
C573        C  0.91899353  0.10992488  0.56310792    -0.09260
C574        C  0.93625381  0.12148787  0.58974794     0.29620
F575        F  0.98616682  0.11074098  0.59851063    -0.19780
H576        H  0.91673389  0.15435830  0.62793042     0.17980
H577        H  0.85339835  0.11413657  0.53422138     0.17990
F578        F  0.78362900  0.15883339  0.56429393    -0.19770
C579        C  0.11293822  0.81377225  0.58966690    -0.21210
C580        C  0.16825963  0.80861718  0.58854180    -0.09250
C581        C  0.19505565  0.83254102  0.56694915     0.29610
C582        C  0.16690433  0.86146327  0.54753088    -0.21210
C583        C  0.11172461  0.86530111  0.54887930    -0.09260
C584        C  0.08501125  0.84078926  0.56991603     0.29620
F585        F  0.03171922  0.84477469  0.57199606    -0.19780
H586        H  0.09086212  0.79795792  0.60631799     0.17980
H587        H  0.18794052  0.88008320  0.53127213     0.17990
F588        F  0.24799565  0.82730924  0.56423005    -0.19770
C589        C  0.15762667  0.21388653  0.57167758    -0.21210
C590        C  0.18055410  0.18301406  0.59207521    -0.09250
C591        C  0.17434318  0.12853621  0.59005015     0.29610
C592        C  0.14614769  0.10584248  0.56831121    -0.21210
C593        C  0.12195284  0.13650715  0.54833967    -0.09260
C594        C  0.12819578  0.19098755  0.55010236     0.29620
F595        F  0.10536149  0.22210881  0.53131356    -0.19780
H596        H  0.16179355  0.25590502  0.57266684     0.17980
H597        H  0.14101850  0.06386078  0.56794587     0.17990
F598        F  0.19237037  0.09700154  0.60998103    -0.19770
C599        C  0.33266335  0.37177649  0.90804464    -0.21210
C600        C  0.33469967  0.31740507  0.90515571    -0.09250
C601        C  0.36299258  0.28924216  0.92504979     0.29610
C602        C  0.39061350  0.31546560  0.94623742    -0.21210
C603        C  0.38890453  0.36984451  0.94860426    -0.09260
C604        C  0.35843605  0.39756817  0.92958248     0.29620
F605        F  0.35586355  0.45027518  0.93073455    -0.19780
H606        H  0.31261216  0.39515319  0.89302081     0.17980
H607        H  0.41341107  0.29329005  0.96076667     0.17990
F608        F  0.36374170  0.23647965  0.92430195    -0.19770
C609        C  0.59692248  0.63258886  0.88463147    -0.21210
C610        C  0.64347196  0.65893705  0.89325941    -0.09250
C611        C  0.66239445  0.65297955  0.91989473     0.29610
C612        C  0.63455159  0.62162741  0.93783448    -0.21210
C613        C  0.58746219  0.59533552  0.92947134    -0.09260
C614        C  0.56908804  0.60082489  0.90249001     0.29620
F615        F  0.52443421  0.57553627  0.89326251    -0.19780
H616        H  0.58275541  0.63586316  0.86387255     0.17980
H617        H  0.64964780  0.61853171  0.95842907     0.17990
F618        F  0.70781203  0.67770086  0.92851810    -0.19770
C619        C  0.35838961  0.62964931  0.90302636    -0.21210
C620        C  0.33953029  0.67965653  0.90801120    -0.09250
C621        C  0.35103677  0.70369972  0.93323413     0.29610
C622        C  0.38003213  0.67709425  0.95328078    -0.21210
C623        C  0.39664432  0.62613169  0.94837511    -0.09260
C624        C  0.38621067  0.60304855  0.92292018     0.29620
F625        F  0.40370674  0.55471007  0.91709225    -0.19780
H626        H  0.35087114  0.61072214  0.88360885     0.17980
H627        H  0.38822827  0.69554302  0.97274212     0.17990
F628        F  0.33253691  0.75169466  0.93879671    -0.19770
C629        C  0.33482404  0.10461317  0.80278917    -0.21210
C630        C  0.39027041  0.10466433  0.80119577    -0.09250
C631        C  0.41995207  0.14478286  0.81456284     0.29610
C632        C  0.39452909  0.18447854  0.82828014    -0.21210
C633        C  0.33904988  0.18512963  0.82941297    -0.09260
C634        C  0.30941051  0.14405280  0.81694542     0.29620
F635        F  0.25584780  0.14181122  0.81854550    -0.19780
H636        H  0.31102519  0.07429915  0.79276254     0.17980
H637        H  0.41847075  0.21579098  0.83729332     0.17990
F638        F  0.47356017  0.14762870  0.81318300    -0.19770
C639        C  0.35730430  0.89611588  0.82933695    -0.21210
C640        C  0.35589470  0.89019779  0.80101679    -0.09250
C641        C  0.33035635  0.84610729  0.78953801     0.29610
C642        C  0.30913552  0.80755568  0.80607375    -0.21210
C643        C  0.31134299  0.81243071  0.83453572    -0.09260
C644        C  0.33449360  0.85810232  0.84598603     0.29620
F645        F  0.33580519  0.86576244  0.87317173    -0.19780
H646        H  0.37763995  0.92952322  0.83858908     0.17980
H647        H  0.29326291  0.77248635  0.79637585     0.17990
F648        F  0.33046307  0.83771109  0.76240158    -0.19770
C649        C  0.63781295  0.84418847  0.84448306    -0.21210
C650        C  0.67234338  0.81124201  0.83072560    -0.09250
C651        C  0.68603100  0.82495783  0.80400348     0.29610
C652        C  0.66489179  0.86894164  0.79171543    -0.21210
C653        C  0.62610675  0.89770389  0.80443638    -0.09260
C654        C  0.61379681  0.88590795  0.83131426     0.29620
F655        F  0.57704272  0.91350657  0.84455966    -0.19780
H656        H  0.62759131  0.83679321  0.86523664     0.17980
H657        H  0.67542344  0.87767134  0.77113209     0.17990
F658        F  0.71577022  0.79391483  0.78842105    -0.19770
C659        C  0.68558842  0.06889284  0.68944463    -0.21210
C660        C  0.63566352  0.08815868  0.69569295    -0.09250
C661        C  0.61992355  0.13594205  0.68472138     0.29610
C662        C  0.65524898  0.16525765  0.66918128    -0.21210
C663        C  0.70588807  0.14661880  0.66398865    -0.09260
C664        C  0.72040852  0.09774374  0.67381811     0.29620
F665        F  0.76971484  0.07947021  0.66985030    -0.19780
H666        H  0.69867613  0.03218325  0.69760131     0.17980
H667        H  0.64372368  0.20305922  0.66179677     0.17990
F668        F  0.57198614  0.15573259  0.69035384    -0.19770
C669        C  0.61651683  0.89687040  0.67384717    -0.21210
C670        C  0.60611753  0.88038284  0.70028963    -0.09250
C671        C  0.63829193  0.84188156  0.71155709     0.29610
C672        C  0.68216638  0.82393123  0.69781159    -0.21210
C673        C  0.69359065  0.84021979  0.67126734    -0.09260
C674        C  0.65839927  0.87605335  0.65916382     0.29620
F675        F  0.66336877  0.89092476  0.63309687    -0.19780
H676        H  0.59206983  0.92614536  0.66446304     0.17980
H677        H  0.70778194  0.79806229  0.70885950     0.17990
F678        F  0.62916307  0.82309910  0.73660033    -0.19770
C679        C  0.35321773  0.88800134  0.67866061    -0.21210
C680        C  0.38650684  0.86021479  0.69641131    -0.09250
C681        C  0.38193595  0.80566934  0.69648845     0.29610
C682        C  0.34415840  0.78005900  0.67941298    -0.21210
C683        C  0.30936643  0.80839375  0.66250155    -0.09260
C684        C  0.31485671  0.86294597  0.66236233     0.29620
F685        F  0.28066830  0.89297142  0.64816302    -0.19780
H686        H  0.35472110  0.93017262  0.67829123     0.17980
H687        H  0.34124792  0.73796886  0.67991553     0.17990
F688        F  0.41333508  0.77726173  0.71310084    -0.19770
C689        C  0.35368877  0.09094587  0.68161015    -0.21210
C690        C  0.39420297  0.11723445  0.69654203    -0.09250
C691        C  0.39550931  0.17196022  0.69676467     0.29610
C692        C  0.35691160  0.19951171  0.68221457    -0.21210
C693        C  0.31594383  0.17302046  0.66755121    -0.09260
C694        C  0.31470106  0.11820912  0.66762960     0.29620
F695        F  0.27420519  0.09067708  0.65545078    -0.19780
H696        H  0.35080475  0.04879976  0.68159564     0.17980
H697        H  0.35887100  0.24167071  0.68253006     0.17990
F698        F  0.43395963  0.19874552  0.71094685    -0.19770
C699        C  0.64248849  0.40140839  0.89650942    -0.21210
C700        C  0.65523108  0.34900067  0.90061564    -0.09250
C701        C  0.63753235  0.32372699  0.92394141     0.29610
C702        C  0.60774371  0.35075549  0.94279427    -0.21210
C703        C  0.59407585  0.40273374  0.93823475    -0.09260
C704        C  0.61167419  0.42789002  0.91496592     0.29620
F705        F  0.59902213  0.47802689  0.91008670    -0.19780
H706        H  0.65535078  0.42151353  0.87855795     0.17980
H707        H  0.59374778  0.33060700  0.96050724     0.17990
F708        F  0.64911447  0.27314857  0.92848405    -0.19770
C709        C  0.62520572  0.18583127  0.78523226    -0.21210
C710        C  0.60862514  0.13815734  0.79619799    -0.09250
C711        C  0.62111170  0.12751580  0.82341127     0.29610
C712        C  0.64855108  0.16517890  0.83948149    -0.21210
C713        C  0.66466291  0.21310622  0.82834674    -0.09260
C714        C  0.65288066  0.22281210  0.80097206     0.29620
F715        F  0.66599054  0.26919417  0.78967144    -0.19780
H716        H  0.61586685  0.19493197  0.76430973     0.17980
H717        H  0.65692872  0.15718924  0.86061055     0.17990
F718        F  0.60469709  0.08216463  0.83469114    -0.19770
C719        C  0.15691421  0.39968023  0.81307831    -0.21210
C720        C  0.11663896  0.36995371  0.79978287    -0.09250
C721        C  0.11728424  0.31531846  0.80203369     0.29610
C722        C  0.15793225  0.29130092  0.81670467    -0.21210
C723        C  0.19878689  0.32095245  0.82949831    -0.09260
C724        C  0.19753357  0.37565449  0.82775038     0.29620
F725        F  0.23695971  0.40596203  0.83902847    -0.19780
H726        H  0.15781976  0.44173983  0.81158015     0.17980
H727        H  0.15778487  0.24919872  0.81782689     0.17990
F728        F  0.07984433  0.28478683  0.78926183    -0.19770
C729        C  0.21369153  0.64332919  0.80958823    -0.21210
C730        C  0.20215137  0.65217624  0.83684526    -0.09250
C731        C  0.15944056  0.62515332  0.84831922     0.29610
C732        C  0.12686133  0.59233103  0.83214046    -0.21210
C733        C  0.13712972  0.58534644  0.80451661    -0.09260
C734        C  0.18175515  0.61018655  0.79354098     0.29620
F735        F  0.19295428  0.60501115  0.76695164    -0.19780
H736        H  0.24726854  0.66287644  0.80056640     0.17980
H737        H  0.09278233  0.57346154  0.84102597     0.17990
F738        F  0.14789243  0.63222344  0.87473791    -0.19770
C739        C  0.77589876  0.64271703  0.80367654    -0.21210
C740        C  0.78972709  0.65820952  0.83012812    -0.09250
C741        C  0.83664439  0.64059473  0.84227320     0.29610
C742        C  0.87032088  0.60908758  0.82755635    -0.21210
C743        C  0.85696055  0.59410358  0.80076178    -0.09260
C744        C  0.80876330  0.61067915  0.78912065     0.29620
F745        F  0.79369823  0.59724866  0.76343092    -0.19780
H746        H  0.73907876  0.65516261  0.79436047     0.17980
H747        H  0.90712474  0.59701471  0.83699044     0.17990
F748        F  0.85019604  0.65465398  0.86806013    -0.19770
C749        C  0.84733207  0.33049200  0.82714673    -0.21210
C750        C  0.80094025  0.35515887  0.83497082    -0.09250
C751        C  0.79396686  0.40783822  0.82826960     0.29610
C752        C  0.83169657  0.43438670  0.81309391    -0.21210
C753        C  0.87734593  0.40933663  0.80484277    -0.09260
C754        C  0.88551220  0.35744572  0.81233678     0.29620
F755        F  0.92845887  0.33179387  0.80365398    -0.19780
H756        H  0.85329063  0.28992005  0.83192665     0.17980
H757        H  0.82449402  0.47411054  0.80702194     0.17990
F758        F  0.74906084  0.43267311  0.83480197    -0.19770
C759        C  0.86383897  0.67321689  0.65812018    -0.21210
C760        C  0.84536506  0.71765495  0.67132515    -0.09250
C761        C  0.85796750  0.72528218  0.69889961     0.29610
C762        C  0.88733733  0.68866995  0.71311626    -0.21210
C763        C  0.90451371  0.64317938  0.70033660    -0.09260
C764        C  0.89270952  0.63588088  0.67251837     0.29620
F765        F  0.90883234  0.59279887  0.65926080    -0.19780
H766        H  0.85512712  0.66707841  0.63676390     0.17980
H767        H  0.89549761  0.69552061  0.73446963     0.17990
F768        F  0.84242900  0.76872834  0.71206319    -0.19770
C769        C  0.13904110  0.63715144  0.65607565    -0.21210
C770        C  0.15394912  0.68726828  0.66520119    -0.09250
C771        C  0.13535798  0.70541299  0.68998610     0.29610
C772        C  0.10431442  0.67311125  0.70594438    -0.21210
C773        C  0.09132201  0.62184252  0.69766355    -0.09260
C774        C  0.10820623  0.60437566  0.67221765     0.29620
F775        F  0.09610175  0.55547158  0.66316242    -0.19780
H776        H  0.15246704  0.62300121  0.63677533     0.17980
H777        H  0.09165468  0.68805073  0.72522694     0.17990
F778        F  0.14728172  0.75457299  0.69877291    -0.19770
C779        C  0.18258125  0.39012137  0.69644146    -0.21210
C780        C  0.12727948  0.38814841  0.69916438    -0.09250
C781        C  0.09775169  0.34822920  0.68570208     0.29610
C782        C  0.12334948  0.31031273  0.67076584    -0.21210
C783        C  0.17877004  0.31128649  0.66880980    -0.09260
C784        C  0.20815527  0.35215209  0.68146489     0.29620
F785        F  0.26161176  0.35545236  0.67935754    -0.19780
H786        H  0.20637033  0.42038747  0.70650045     0.17980
H787        H  0.09975771  0.27914855  0.66136168     0.17990
F788        F  0.04421090  0.34501031  0.68731652    -0.19770
C789        C  0.91640617  0.31060639  0.70103371    -0.21210
C790        C  0.90345691  0.36329447  0.69948140    -0.09250
C791        C  0.85878141  0.37791282  0.68394676     0.29610
C792        C  0.82792196  0.34015671  0.67006589    -0.21210
C793        C  0.84151795  0.28775824  0.67140443    -0.09260
C794        C  0.88601950  0.27309783  0.68686311     0.29620
F795        F  0.90021855  0.22247491  0.68800287    -0.19780
H796        H  0.95032129  0.29856516  0.71305814     0.17980
H797        H  0.79390869  0.35177871  0.65799551     0.17990
F798        F  0.84400300  0.42835448  0.68285054    -0.19770
loop_ 
_geom_bond_atom_site_label_1 
_geom_bond_atom_site_label_2 
_geom_bond_distance 
_geom_bond_site_symmetry_2 
_ccdc_geom_bond_type 
O1            C9   1.263       .  A
O1          Co21   1.994   1_655  S
O2           C10   1.279       .  A
O2          Co22   2.019   1_455  S
O3           C11   1.267       .  A
O3          Co23   1.976       .  S
O4           C12   1.267       .  A
O4          Co24   1.892       .  S
O5           C11   1.276       .  A
O5          Co22   2.021       .  S
O6           C12   1.296       .  A
O6          Co21   2.107       .  S
O7           C10   1.269       .  A
O7          Co24   1.969       .  S
O8            C9   1.259       .  A
O8          Co23   1.968       .  S
C9          C790   1.469       .  S
C10         C773   1.482       .  S
C11         C763   1.487       .  S
C12         C780   1.482       .  S
O13          C26   1.266       .  A
O13         Co21   1.898       .  S
O14          C27   1.262       .  A
O14         Co22   1.965       .  S
O15          C28   1.279       .  A
O15         Co23   2.020       .  S
O16          C29   1.265       .  A
O16         Co24   2.001       .  S
O17          C29   1.258       .  A
O17         Co22   1.973   1_455  S
O18          C28   1.270       .  A
O18         Co21   1.967   1_655  S
O19          C26   1.295       .  A
O19         Co24   2.110       .  S
O20          C27   1.270       .  A
O20         Co23   2.007       .  S
Co21         O25   1.999   1_455  S
Co22         O25   2.015       .  S
Co23         O25   2.024       .  S
Co24         O25   2.000   1_455  S
C26         C720   1.486       .  S
C27         C743   1.477       .  S
C28         C753   1.467       .  S
C29         C733   1.473       .  S
C30         C750   1.483       .  S
C30          C31   1.400       .  A
C30          C35   1.403       .  A
C31          C32   1.403       .  A
C31          H36   1.084       .  S
C32         C700   1.481       .  S
C32          C33   1.407       .  A
C33          C34   1.406       .  A
C33          H37   1.083       .  S
C34         C713   1.484       .  S
C34          C35   1.406       .  A
C35          H38   1.084       .  S
O39          C47   1.298       .  A
O39         Co59   2.114       .  S
O40          C48   1.273       .  A
O40         Co60   2.041       .  S
O41          C49   1.266       .  A
O41         Co61   1.963       .  S
O42          C50   1.251       .  A
O42         Co62   1.971       .  S
O43          C49   1.283       .  A
O43         Co60   2.042   1_545  S
O44          C50   1.263       .  A
O44         Co59   2.016   1_565  S
O45          C48   1.253       .  A
O45         Co62   1.958       .  S
O46          C47   1.260       .  A
O46         Co61   1.881       .  S
C47         C710   1.475       .  S
C48         C640   1.477       .  S
C49         C630   1.486       .  S
C50         C653   1.480       .  S
O51          C64   1.265       .  A
O51         Co59   1.982   1_565  S
O52          C65   1.247       .  A
O52         Co60   1.961   1_545  S
O53          C66   1.297       .  A
O53         Co61   2.100       .  S
O54          C67   1.277       .  A
O54         Co62   2.062       .  S
O55          C67   1.250       .  A
O55         Co60   1.936       .  S
O56          C66   1.264       .  A
O56         Co59   1.881       .  S
O57          C64   1.279       .  A
O57         Co62   2.040       .  S
O58          C65   1.256       .  A
O58         Co61   2.019       .  S
Co59         O63   2.015   1_545  S
Co60         O63   2.019       .  S
Co61         O63   2.022   1_545  S
Co62         O63   2.044       .  S
C64         C670   1.495       .  S
C65         C690   1.482       .  S
C66         C660   1.474       .  S
C67         C680   1.489       .  S
C68         C643   1.497       .  S
C68          C69   1.404       .  A
C68          C73   1.416       .  A
C69          C70   1.398       .  A
C69          H74   1.084       .  S
C70         C730   1.476       .  S
C70          C71   1.394       .  A
C71          C72   1.405       .  A
C71          H75   1.084       .  S
C72         C620   1.483       .  S
C72          C73   1.412       .  A
C73          H76   1.083       .  S
C77         C650   1.506       .  S
C77          C78   1.417       .  A
C77          C82   1.411       .  A
C78          C79   1.406       .  A
C78          H83   1.081       .  S
C79         C610   1.470       .  S
C79          C80   1.394       .  A
C80          C81   1.391       .  A
C80          H84   1.085       .  S
C81         C740   1.467       .  S
C81          C82   1.400       .  A
C82          H85   1.080       .  S
C86         C723   1.491       .  S
C86          C87   1.405       .  A
C86          C91   1.404       .  A
C87          C88   1.406       .  A
C87          H92   1.083       .  S
C88         C633   1.492       .  S
C88          C89   1.408       .  A
C89          C90   1.408       .  A
C89          H93   1.081       .  S
C90         C600   1.497       .  S
C90          C91   1.410       .  A
C91          H94   1.082       .  S
C95         C693   1.492       .  S
C95          C96   1.405       .  A
C95         C100   1.407       .  A
C96          C97   1.407       .  A
C96         H101   1.083       .  S
C97         C783   1.486       .  S
C97          C98   1.406       .  A
C98          C99   1.404       .  A
C98         H102   1.083       .  S
C99         C590   1.491       .  S
C99         C100   1.407       .  A
C100        H103   1.083       .  S
C104        C770   1.475       .  S
C104        C105   1.399       .  A
C104        C109   1.397       .  A
C105        C106   1.403       .  A
C105        H110   1.084       .  S
C106        C683   1.497       .  S
C106        C107   1.415       .  A
C107        C108   1.411       .  A
C107        H111   1.080       .  S
C108        C580   1.498       .  S
C108        C109   1.408       .  A
C109        H112   1.083       .  S
C113        C663   1.473       .  S
C113        C114   1.405       .  A
C113        C118   1.406       .  A
C114        C115   1.400       .  A
C114        H119   1.085       .  S
C115        C570   1.469       .  S
C115        C116   1.397       .  A
C116        C117   1.394       .  A
C116        H120   1.085       .  S
C117        C793   1.466       .  S
C117        C118   1.401       .  A
C118        H121   1.084       .  S
C122        C760   1.484       .  S
C122        C123   1.404       .  A
C122        C127   1.395       .  A
C123        C124   1.417       .  A
C123        H128   1.081       .  S
C124        C673   1.522       .  S
C124        C125   1.421       .  A
C125        C126   1.411       .  A
C125        H129   1.080       .  S
C126        C560   1.480       .  S
C126        C127   1.400       .  A
C127        H130   1.084       .  S
O131        C139   1.252       .  A
O131       Co151   1.960       .  S
O132        C140   1.269       .  A
O132       Co152   1.970       .  S
O133        C141   1.293       .  A
O133       Co153   2.103       .  S
O134        C142   1.271       .  A
O134       Co154   2.031   1_556  S
O135        C141   1.263       .  A
O135       Co152   1.888       .  S
O136        C142   1.257       .  A
O136       Co151   1.956       .  S
O137        C140   1.277       .  A
O137       Co154   2.030       .  S
O138        C139   1.263       .  A
O138       Co153   2.022   1_556  S
C139        C603   1.480       .  S
C140        C523   1.475       .  S
C141        C540   1.476       .  S
C142        C623   1.472       .  S
O143        C156   1.273       .  A
O143       Co151   2.019       .  S
O144        C157   1.291       .  A
O144       Co152   2.093       .  S
O145        C158   1.268       .  A
O145       Co153   1.963   1_556  S
O146        C159   1.258       .  A
O146       Co154   1.980       .  S
O147        C159   1.260       .  A
O147       Co152   1.989       .  S
O148        C158   1.280       .  A
O148       Co151   2.029       .  S
O149        C156   1.264       .  A
O149       Co154   1.963   1_556  S
O150        C157   1.269       .  A
O150       Co153   1.901       .  S
Co151       O155   2.001       .  S
Co152       O155   1.986   1_554  S
Co153       O155   2.037   1_554  S
Co154       O155   2.047   1_554  S
C156        C613   1.482       .  S
C157        C553   1.463       .  S
C158        C703   1.470       .  S
C159        C533   1.476       .  S
C160        C510   1.483       .  S
C160        C161   1.402       .  A
C160        C165   1.407       .  A
C161        C162   1.402       .  A
C161        H166   1.084       .  S
C162        C520   1.480       .  S
C162        C163   1.407       .  A
C163        C164   1.412       .  A
C163        H167   1.083       .  S
C164        C500   1.499       .  S
C164        C165   1.406       .  A
C165        H168   1.083       .  S
C169        C493   1.494       .  S
C169        C170   1.415       .  A
C169        C174   1.407       .  A
C170        C171   1.413       .  A
C170        H175   1.082       .  S
C171        C550   1.491       .  S
C171        C172   1.403       .  A
C172        C173   1.391       .  A
C172        H176   1.084       .  S
C173        C480   1.473       .  S
C173        C174   1.396       .  A
C174        H177   1.083       .  S
C178        C473   1.470       .  S
C178        C179   1.399       .  A
C178        C183   1.393       .  A
C179        C180   1.406       .  A
C179        H184   1.082       .  S
C180        C463   1.495       .  S
C180        C181   1.412       .  A
C181        C182   1.403       .  A
C181        H185   1.082       .  S
C182        C530   1.473       .  S
C182        C183   1.399       .  A
C183        H186   1.084       .  S
O187        C195   1.276       .  A
O187       Co207   2.008       .  S
O188        C196   1.265       .  A
O188       Co208   2.000       .  S
O189        C197   1.267       .  A
O189       Co209   1.889       .  S
O190        C198   1.261       .  A
O190       Co210   1.959       .  S
O191        C197   1.296       .  A
O191       Co208   2.107       .  S
O192        C198   1.274       .  A
O192       Co207   2.020       .  S
O193        C196   1.257       .  A
O193       Co210   1.968   1_545  S
O194        C195   1.273       .  A
O194       Co209   1.983   1_565  S
C195        C513   1.485       .  S
C196        C483   1.474       .  S
C197        C410   1.475       .  S
C198        C470   1.471       .  S
O199        C212   1.262       .  A
O199       Co207   1.957       .  S
O200        C213   1.269       .  A
O200       Co208   1.892       .  S
O201        C214   1.264       .  A
O201       Co209   1.997   1_565  S
O202        C215   1.277       .  A
O202       Co210   2.021   1_545  S
O203        C215   1.271       .  A
O203       Co208   1.973       .  S
O204        C214   1.262       .  A
O204       Co207   1.976       .  S
O205        C212   1.273       .  A
O205       Co210   2.016       .  S
O206        C213   1.297       .  A
O206       Co209   2.111       .  S
Co207       O211   2.017       .  S
Co208       O211   1.997   1_545  S
Co209       O211   1.987   1_545  S
Co210       O211   2.017       .  S
C212        C423   1.475       .  S
C213        C443   1.482       .  S
C214        C450   1.477       .  S
C215        C433   1.475       .  S
O216        C224   1.264       .  A
O216       Co236   2.040       .  S
O217        C225   1.283       .  A
O217       Co237   2.052       .  S
O218        C226   1.259       .  A
O218       Co238   1.967   1_655  S
O219        C227   1.261       .  A
O219       Co239   1.882       .  S
O220        C226   1.271       .  A
O220       Co237   2.022       .  S
O221        C227   1.295       .  A
O221       Co236   2.098       .  S
O222        C225   1.266       .  A
O222       Co239   1.960   1_655  S
O223        C224   1.247       .  A
O223       Co238   1.952       .  S
C224        C373   1.487       .  S
C225        C390   1.491       .  S
C226        C380   1.477       .  S
C227        C400   1.476       .  S
O228        C241   1.268       .  A
O228       Co236   1.893       .  S
O229        C242   1.261       .  A
O229       Co237   1.965       .  S
O230        C243   1.284       .  A
O230       Co238   2.057       .  S
O231        C244   1.261       .  A
O231       Co239   2.010   1_655  S
O232        C244   1.252       .  A
O232       Co237   1.975       .  S
O233        C243   1.264       .  A
O233       Co236   1.956       .  S
O234        C241   1.295       .  A
O234       Co239   2.092       .  S
O235        C242   1.273       .  A
O235       Co238   2.014   1_655  S
Co236       O240   2.030   1_455  S
Co237       O240   2.032       .  S
Co238       O240   2.008   1_455  S
Co239       O240   1.990   1_455  S
C241        C360   1.477       .  S
C242        C460   1.473       .  S
C243        C503   1.490       .  S
C244        C490   1.475       .  S
C245        C363   1.471       .  S
C245        C246   1.398       .  A
C245        C250   1.401       .  A
C246        C247   1.406       .  A
C246        H251   1.085       .  S
C247        C543   1.481       .  S
C247        C248   1.403       .  A
C248        C249   1.402       .  A
C248        H252   1.084       .  S
C249        C413   1.468       .  S
C249        C250   1.401       .  A
C250        H253   1.084       .  S
C254        C440   1.483       .  S
C254        C255   1.407       .  A
C254        C259   1.406       .  A
C255        C256   1.404       .  A
C255        H260   1.084       .  S
C256        C403   1.476       .  S
C256        C257   1.402       .  A
C257        C258   1.398       .  A
C257        H261   1.084       .  S
C258        C353   1.473       .  S
C258        C259   1.399       .  A
C259        H262   1.084       .  S
C263        C430   1.484       .  S
C263        C264   1.408       .  A
C263        C268   1.399       .  A
C264        C265   1.415       .  A
C264        H269   1.082       .  S
C265        C393   1.503       .  S
C265        C266   1.415       .  A
C266        C267   1.403       .  A
C266        H270   1.082       .  S
C267        C343   1.492       .  S
C267        C268   1.402       .  A
C268        H271   1.084       .  S
C272        C370   1.498       .  S
C272        C273   1.414       .  A
C272        C277   1.407       .  A
C273        C274   1.406       .  A
C273        H278   1.082       .  S
C274        C330   1.474       .  S
C274        C275   1.395       .  A
C275        C276   1.398       .  A
C275        H279   1.085       .  S
C276        C453   1.475       .  S
C276        C277   1.405       .  A
C277        H280   1.083       .  S
C281        C383   1.504       .  S
C281        C282   1.410       .  A
C281        C286   1.416       .  A
C282        C283   1.397       .  A
C282        H287   1.082       .  S
C283        C420   1.464       .  S
C283        C284   1.389       .  A
C284        C285   1.399       .  A
C284        H288   1.084       .  S
C285        C320   1.485       .  S
C285        C286   1.410       .  A
C286        H289   1.079       .  S
O290        C298   1.255       .  A
O290       Co310   1.990   1_655  S
O291        C299   1.263       .  A
O291       Co311   1.979   1_565  S
O292        C300   1.273       .  A
O292       Co312   2.032   1_655  S
O293        C301   1.251       .  A
O293       Co313   1.987   1_655  S
O294        C300   1.261       .  A
O294       Co311   1.963       .  S
O295        C301   1.253       .  A
O295       Co310   1.988   1_665  S
O296        C299   1.265       .  A
O296       Co313   1.997   1_655  S
O297        C298   1.245       .  A
O297       Co312   1.961   1_655  S
C298        C573   1.470       .  S
C299        C323   1.466       .  S
C300        C340   1.479       .  S
C301        C563   1.490       .  S
O302        C315   1.298       .  A
O302       Co310   2.075   1_565  S
O303        C316   1.268       .  A
O303       Co311   2.020   1_455  S
O304        C317   1.278       .  A
O304       Co312   1.926       .  S
O305        C318   1.265       .  A
O305       Co313   2.000       .  S
O306        C318   1.265       .  A
O306       Co311   1.996   1_465  S
O307        C317   1.294       .  A
O307       Co310   2.039       .  S
O308        C315   1.270       .  A
O308       Co313   1.891       .  S
O309        C316   1.254       .  A
O309       Co312   1.975       .  S
Co310       O314   2.244   1_455  S
Co311       O314   2.064       .  S
Co312       O314   1.944   1_455  S
Co313       O314   1.928   1_465  S
C315        C583   1.469       .  S
C316        C350   1.471       .  S
C317        C593   1.482       .  S
C318        C333   1.486       .  S
C319        C320   1.405       .  A
C319        C324   1.396       .  A
C319        H326   1.082       .  S
C320        C321   1.412       .  A
C321        C322   1.395       .  A
C321        F328   1.358       .  S
C322        C323   1.399       .  A
C322        H327   1.083       .  S
C323        C324   1.406       .  A
C324        F325   1.358       .  S
C329        C330   1.398       .  A
C329        C334   1.392       .  A
C329        H336   1.084       .  S
C330        C331   1.404       .  A
C331        C332   1.405       .  A
C331        F338   1.357       .  S
C332        C333   1.409       .  A
C332        H337   1.084       .  S
C333        C334   1.413       .  A
C334        F335   1.358       .  S
C339        C340   1.403       .  A
C339        C344   1.389       .  A
C339        H346   1.084       .  S
C340        C341   1.406       .  A
C341        C342   1.410       .  A
C341        F348   1.357       .  S
C342        C343   1.412       .  A
C342        H347   1.083       .  S
C343        C344   1.408       .  A
C344        F345   1.358       .  S
C349        C350   1.406       .  A
C349        C354   1.397       .  A
C349        H356   1.084       .  S
C350        C351   1.403       .  A
C351        C352   1.398       .  A
C351        F358   1.357       .  S
C352        C353   1.404       .  A
C352        H357   1.084       .  S
C353        C354   1.402       .  A
C354        F355   1.358       .  S
C359        C360   1.404       .  A
C359        C364   1.392       .  A
C359        H366   1.084       .  S
C360        C361   1.410       .  A
C361        C362   1.402       .  A
C361        F368   1.357       .  S
C362        C363   1.401       .  A
C362        H367   1.083       .  S
C363        C364   1.403       .  A
C364        F365   1.358       .  S
C369        C370   1.414       .  A
C369        C374   1.408       .  A
C369        H376   1.082       .  S
C370        C371   1.408       .  A
C371        C372   1.393       .  A
C371        F378   1.357       .  S
C372        C373   1.408       .  A
C372        H377   1.083       .  S
C373        C374   1.405       .  A
C374        F375   1.357       .  S
C379        C380   1.403       .  A
C379        C384   1.401       .  A
C379        H386   1.083       .  S
C380        C381   1.401       .  A
C381        C382   1.394       .  A
C381        F388   1.356       .  S
C382        C383   1.413       .  A
C382        H387   1.080       .  S
C383        C384   1.415       .  A
C384        F385   1.356       .  S
C389        C390   1.407       .  A
C389        C394   1.409       .  A
C389        H396   1.083       .  S
C390        C391   1.410       .  A
C391        C392   1.392       .  A
C391        F398   1.357       .  S
C392        C393   1.406       .  A
C392        H397   1.082       .  S
C393        C394   1.415       .  A
C394        F395   1.357       .  S
C399        C400   1.407       .  A
C399        C404   1.403       .  A
C399        H406   1.083       .  S
C400        C401   1.408       .  A
C401        C402   1.390       .  A
C401        F408   1.358       .  S
C402        C403   1.401       .  A
C402        H407   1.084       .  S
C403        C404   1.405       .  A
C404        F405   1.357       .  S
C409        C410   1.407       .  A
C409        C414   1.400       .  A
C409        H416   1.083       .  S
C410        C411   1.409       .  A
C411        C412   1.392       .  A
C411        F418   1.358       .  S
C412        C413   1.399       .  A
C412        H417   1.084       .  S
C413        C414   1.402       .  A
C414        F415   1.357       .  S
C419        C420   1.400       .  A
C419        C424   1.394       .  A
C419        H426   1.083       .  S
C420        C421   1.398       .  A
C421        C422   1.395       .  A
C421        F428   1.357       .  S
C422        C423   1.409       .  A
C422        H427   1.082       .  S
C423        C424   1.408       .  A
C424        F425   1.358       .  S
C429        C430   1.406       .  A
C429        C434   1.398       .  A
C429        H436   1.083       .  S
C430        C431   1.405       .  A
C431        C432   1.404       .  A
C431        F438   1.357       .  S
C432        C433   1.406       .  A
C432        H437   1.083       .  S
C433        C434   1.403       .  A
C434        F435   1.357       .  S
C439        C440   1.405       .  A
C439        C444   1.402       .  A
C439        H446   1.084       .  S
C440        C441   1.406       .  A
C441        C442   1.393       .  A
C441        F448   1.358       .  S
C442        C443   1.406       .  A
C442        H447   1.084       .  S
C443        C444   1.410       .  A
C444        F445   1.357       .  S
C449        C450   1.405       .  A
C449        C454   1.398       .  A
C449        H456   1.083       .  S
C450        C451   1.410       .  A
C451        C452   1.394       .  A
C451        F458   1.358       .  S
C452        C453   1.401       .  A
C452        H457   1.083       .  S
C453        C454   1.405       .  A
C454        F455   1.357       .  S
C459        C460   1.399       .  A
C459        C464   1.392       .  A
C459        H466   1.083       .  S
C460        C461   1.405       .  A
C461        C462   1.398       .  A
C461        F468   1.358       .  S
C462        C463   1.409       .  A
C462        H467   1.083       .  S
C463        C464   1.416       .  A
C464        F465   1.357       .  S
C469        C470   1.407       .  A
C469        C474   1.398       .  A
C469        H476   1.083       .  S
C470        C471   1.406       .  A
C471        C472   1.392       .  A
C471        F478   1.358       .  S
C472        C473   1.402       .  A
C472        H477   1.084       .  S
C473        C474   1.403       .  A
C474        F475   1.357       .  S
C479        C480   1.402       .  A
C479        C484   1.397       .  A
C479        H486   1.083       .  S
C480        C481   1.405       .  A
C481        C482   1.393       .  A
C481        F488   1.358       .  S
C482        C483   1.404       .  A
C482        H487   1.083       .  S
C483        C484   1.409       .  A
C484        F485   1.357       .  S
C489        C490   1.405       .  A
C489        C494   1.404       .  A
C489        H496   1.083       .  S
C490        C491   1.403       .  A
C491        C492   1.393       .  A
C491        F498   1.357       .  S
C492        C493   1.409       .  A
C492        H497   1.082       .  S
C493        C494   1.410       .  A
C494        F495   1.357       .  S
C499        C500   1.412       .  A
C499        C504   1.407       .  A
C499        H506   1.083       .  S
C500        C501   1.409       .  A
C501        C502   1.397       .  A
C501        F508   1.357       .  S
C502        C503   1.408       .  A
C502        H507   1.084       .  S
C503        C504   1.406       .  A
C504        F505   1.357       .  S
C509        C510   1.407       .  A
C509        C514   1.406       .  A
C509        H516   1.084       .  S
C510        C511   1.403       .  A
C511        C512   1.391       .  A
C511        F518   1.358       .  S
C512        C513   1.408       .  A
C512        H517   1.083       .  S
C513        C514   1.409       .  A
C514        F515   1.357       .  S
C519        C520   1.400       .  A
C519        C524   1.395       .  A
C519        H526   1.084       .  S
C520        C521   1.408       .  A
C521        C522   1.407       .  A
C521        F528   1.357       .  S
C522        C523   1.404       .  A
C522        H527   1.084       .  S
C523        C524   1.403       .  A
C524        F525   1.354       .  S
C529        C530   1.402       .  A
C529        C534   1.392       .  A
C529        H536   1.084       .  S
C530        C531   1.403       .  A
C531        C532   1.398       .  A
C531        F538   1.357       .  S
C532        C533   1.407       .  A
C532        H537   1.083       .  S
C533        C534   1.409       .  A
C534        F535   1.358       .  S
C539        C540   1.406       .  A
C539        C544   1.404       .  A
C539        H546   1.083       .  S
C540        C541   1.404       .  A
C541        C542   1.387       .  A
C541        F548   1.352       .  S
C542        C543   1.402       .  A
C542        H547   1.083       .  S
C543        C544   1.408       .  A
C544        F545   1.357       .  S
C549        C550   1.410       .  A
C549        C554   1.390       .  A
C549        H556   1.083       .  S
C550        C551   1.410       .  A
C551        C552   1.406       .  A
C551        F558   1.357       .  S
C552        C553   1.404       .  A
C552        H557   1.083       .  S
C553        C554   1.397       .  A
C554        F555   1.358       .  S
C559        C560   1.399       .  A
C559        C564   1.397       .  A
C559        H566   1.084       .  S
C560        C561   1.406       .  A
C561        C562   1.406       .  A
C561        F568   1.357       .  S
C562        C563   1.408       .  A
C562        H567   1.083       .  S
C563        C564   1.414       .  A
C564        F565   1.358       .  S
C569        C570   1.401       .  A
C569        C574   1.388       .  A
C569        H576   1.084       .  S
C570        C571   1.403       .  A
C571        C572   1.400       .  A
C571        F578   1.357       .  S
C572        C573   1.406       .  A
C572        H577   1.084       .  S
C573        C574   1.406       .  A
C574        F575   1.358       .  S
C579        C580   1.409       .  A
C579        C584   1.390       .  A
C579        H586   1.082       .  S
C580        C581   1.415       .  A
C581        C582   1.408       .  A
C581        F588   1.356       .  S
C582        C583   1.402       .  A
C582        H587   1.083       .  S
C583        C584   1.400       .  A
C584        F585   1.358       .  S
C589        C590   1.410       .  A
C589        C594   1.404       .  A
C589        H596   1.083       .  S
C590        C591   1.408       .  A
C591        C592   1.393       .  A
C591        F598   1.357       .  S
C592        C593   1.405       .  A
C592        H597   1.084       .  S
C593        C594   1.407       .  A
C594        F595   1.357       .  S
C599        C600   1.405       .  A
C599        C604   1.391       .  A
C599        H606   1.082       .  S
C600        C601   1.415       .  A
C601        C602   1.405       .  A
C601        F608   1.356       .  S
C602        C603   1.403       .  A
C602        H607   1.083       .  S
C603        C604   1.409       .  A
C604        F605   1.358       .  S
C609        C610   1.400       .  A
C609        C614   1.399       .  A
C609        H616   1.084       .  S
C610        C611   1.401       .  A
C611        C612   1.395       .  A
C611        F618   1.358       .  S
C612        C613   1.407       .  A
C612        H617   1.083       .  S
C613        C614   1.412       .  A
C614        F615   1.357       .  S
C619        C620   1.402       .  A
C619        C624   1.388       .  A
C619        H626   1.084       .  S
C620        C621   1.409       .  A
C621        C622   1.409       .  A
C621        F628   1.357       .  S
C622        C623   1.405       .  A
C622        H627   1.083       .  S
C623        C624   1.405       .  A
C624        F625   1.358       .  S
C629        C630   1.404       .  A
C629        C634   1.403       .  A
C629        H636   1.084       .  S
C630        C631   1.412       .  A
C631        C632   1.397       .  A
C631        F638   1.358       .  S
C632        C633   1.404       .  A
C632        H637   1.083       .  S
C633        C634   1.410       .  A
C634        F635   1.357       .  S
C639        C640   1.407       .  A
C639        C644   1.405       .  A
C639        H646   1.084       .  S
C640        C641   1.401       .  A
C641        C642   1.396       .  A
C641        F648   1.358       .  S
C642        C643   1.412       .  A
C642        H647   1.082       .  S
C643        C644   1.409       .  A
C644        F645   1.357       .  S
C649        C650   1.411       .  A
C649        C654   1.400       .  A
C649        H656   1.082       .  S
C650        C651   1.419       .  A
C651        C652   1.397       .  A
C651        F658   1.356       .  S
C652        C653   1.398       .  A
C652        H657   1.082       .  S
C653        C654   1.406       .  A
C654        F655   1.358       .  S
C659        C660   1.405       .  A
C659        C664   1.390       .  A
C659        H666   1.084       .  S
C660        C661   1.407       .  A
C661        C662   1.402       .  A
C661        F668   1.357       .  S
C662        C663   1.404       .  A
C662        H667   1.084       .  S
C663        C664   1.403       .  A
C664        F665   1.358       .  S
C669        C670   1.407       .  A
C669        C674   1.410       .  A
C669        H676   1.084       .  S
C670        C671   1.404       .  A
C671        C672   1.398       .  A
C671        F678   1.356       .  S
C672        C673   1.415       .  A
C672        H677   1.080       .  S
C673        C674   1.419       .  A
C674        F675   1.355       .  S
C679        C680   1.410       .  A
C679        C684   1.390       .  A
C679        H686   1.084       .  S
C680        C681   1.404       .  A
C681        C682   1.408       .  A
C681        F688   1.357       .  S
C682        C683   1.416       .  A
C682        H687   1.083       .  S
C683        C684   1.406       .  A
C684        F685   1.357       .  S
C689        C690   1.406       .  A
C689        C694   1.394       .  A
C689        H696   1.084       .  S
C690        C691   1.406       .  A
C691        C692   1.405       .  A
C691        F698   1.357       .  S
C692        C693   1.410       .  A
C692        H697   1.083       .  S
C693        C694   1.408       .  A
C694        F695   1.358       .  S
C699        C700   1.406       .  A
C699        C704   1.396       .  A
C699        H706   1.084       .  S
C700        C701   1.406       .  A
C701        C702   1.401       .  A
C701        F708   1.357       .  S
C702        C703   1.405       .  A
C702        H707   1.084       .  S
C703        C704   1.401       .  A
C704        F705   1.356       .  S
C709        C710   1.403       .  A
C709        C714   1.390       .  A
C709        H716   1.084       .  S
C710        C711   1.405       .  A
C711        C712   1.408       .  A
C711        F718   1.357       .  S
C712        C713   1.409       .  A
C712        H717   1.083       .  S
C713        C714   1.405       .  A
C714        F715   1.358       .  S
C719        C720   1.407       .  A
C719        C724   1.400       .  A
C719        H726   1.084       .  S
C720        C721   1.409       .  A
C721        C722   1.400       .  A
C721        F728   1.357       .  S
C722        C723   1.405       .  A
C722        H727   1.084       .  S
C723        C724   1.410       .  A
C724        F725   1.358       .  S
C729        C730   1.404       .  A
C729        C734   1.391       .  A
C729        H736   1.083       .  S
C730        C731   1.404       .  A
C731        C732   1.399       .  A
C731        F738   1.357       .  S
C732        C733   1.408       .  A
C732        H737   1.083       .  S
C733        C734   1.406       .  A
C734        F735   1.358       .  S
C739        C740   1.399       .  A
C739        C744   1.390       .  A
C739        H746   1.084       .  S
C740        C741   1.401       .  A
C741        C742   1.399       .  A
C741        F748   1.357       .  S
C742        C743   1.409       .  A
C742        H747   1.083       .  S
C743        C744   1.410       .  A
C744        F745   1.358       .  S
C749        C750   1.405       .  A
C749        C754   1.399       .  A
C749        H756   1.084       .  S
C750        C751   1.410       .  A
C751        C752   1.397       .  A
C751        F758   1.358       .  S
C752        C753   1.400       .  A
C752        H757   1.084       .  S
C753        C754   1.405       .  A
C754        F755   1.358       .  S
C759        C760   1.405       .  A
C759        C764   1.405       .  A
C759        H766   1.084       .  S
C760        C761   1.405       .  A
C761        C762   1.395       .  A
C761        F768   1.358       .  S
C762        C763   1.406       .  A
C762        H767   1.084       .  S
C763        C764   1.411       .  A
C764        F765   1.357       .  S
C769        C770   1.402       .  A
C769        C774   1.402       .  A
C769        H776   1.083       .  S
C770        C771   1.403       .  A
C771        C772   1.392       .  A
C771        F778   1.358       .  S
C772        C773   1.406       .  A
C772        H777   1.083       .  S
C773        C774   1.411       .  A
C774        F775   1.357       .  S
C779        C780   1.406       .  A
C779        C784   1.399       .  A
C779        H786   1.083       .  S
C780        C781   1.409       .  A
C781        C782   1.397       .  A
C781        F788   1.357       .  S
C782        C783   1.405       .  A
C782        H787   1.083       .  S
C783        C784   1.407       .  A
C784        F785   1.358       .  S
C789        C790   1.402       .  A
C789        C794   1.394       .  A
C789        H796   1.083       .  S
C790        C791   1.409       .  A
C791        C792   1.397       .  A
C791        F798   1.358       .  S
C792        C793   1.398       .  A
C792        H797   1.083       .  S
C793        C794   1.404       .  A
C794        F795   1.358       .  S
