geometry optimzed in LAMMPS
_audit_creation_date              2020-12-01 
_audit_creation_method            'lammps2cif' 
_symmetry_space_group_name_H-M    'P1' 
_symmetry_Int_Tables_number       1 
_symmetry_cell_setting            triclinic 
loop_ 
_symmetry_equiv_pos_as_xyz 
  x,y,z 
_cell_length_a                    27.47569784 
_cell_length_b                    27.473479680114146 
_cell_length_c                    24.207667092767437 
_cell_angle_alpha                 89.9889198638501 
_cell_angle_beta                  90.00801830056128 
_cell_angle_gamma                 120.02326578006159 
loop_ 
_atom_site_label 
_atom_site_type_symbol 
_atom_site_fract_x 
_atom_site_fract_y 
_atom_site_fract_z 
_atom_site_charge 
C1          C  0.05230830  0.00092854  0.98702219     0.04000
C2          C  0.00074921  0.44963060  0.98679786    -0.12200
C3          C  0.44895472  0.44873394  0.98688595     0.01500
C4          C  0.44922173  0.50028747  0.98671458    -0.10700
C5          C  0.50014493  0.05209152  0.98693758     0.04000
C6          C  0.05143810  0.05184388  0.98684797    -0.10100
H7          H  0.00095529  0.41031562  0.98844058     0.09600
H8          H  0.40969056  0.50005888  0.98830104     0.07100
H9          H  0.09075816  0.09138146  0.98852504     0.07000
C10         C  0.21808927  0.33316509  0.66725588     0.04000
C11         C  0.16648352  0.28244000  0.66732599    -0.12200
C12         C  0.11549069  0.28277271  0.66729899     0.01500
C13         C  0.11638780  0.33436937  0.66724008    -0.10700
C14         C  0.16773577  0.38537651  0.66718104     0.04000
C15         C  0.21844342  0.38450402  0.66719702    -0.10100
H16         H  0.16600474  0.24274289  0.66738502     0.09600
H17         H  0.07716378  0.33482977  0.66724479     0.07100
H18         H  0.25814591  0.42374155  0.66717129     0.07000
C19         C  0.33390916  0.21935617  0.33401668     0.04000
C20         C  0.28270721  0.16725589  0.33402208    -0.12200
C21         C  0.28182893  0.11517628  0.33408598     0.01500
C22         C  0.33391282  0.11607903  0.33413905    -0.10700
C23         C  0.38600115  0.16730307  0.33413642     0.04000
C24         C  0.38511880  0.21849906  0.33407750    -0.10100
H25         H  0.24326219  0.16723802  0.33404312     0.09600
H26         H  0.33390971  0.07663802  0.33424056     0.07100
H27         H  0.42456504  0.25795464  0.33413371     0.07000
C28         C  0.31009921  0.33278196  0.04655823     0.04000
C29         C  0.29217917  0.29145132  0.00568546    -0.12200
C30         C  0.32497894  0.30074038  0.95844316     0.01500
C31         C  0.37660314  0.35175594  0.95238569    -0.10700
C32         C  0.39472763  0.39426412  0.99250782     0.04000
C33         C  0.36111793  0.38412045  0.03943860    -0.10100
H34         H  0.25320925  0.25199118  0.01083428     0.09600
H35         H  0.40318993  0.35773395  0.91697081     0.07100
H36         H  0.37458264  0.41677740  0.07051774     0.07000
C37         C  0.33939671  0.31374225  0.71414275     0.04000
C38         C  0.37493976  0.33285696  0.66772390    -0.12200
C39         C  0.35867842  0.35179101  0.62105488     0.01500
C40         C  0.30619799  0.34967809  0.62081799    -0.10700
C41         C  0.27171821  0.33258478  0.66726457     0.04000
C42         C  0.28881748  0.31544214  0.71388017    -0.10100
H43         H  0.41450693  0.33312937  0.66797023     0.09600
H44         H  0.29344731  0.36447423  0.58511587     0.07100
H45         H  0.26115392  0.30078470  0.74949804     0.07000
C46         C  0.30544662  0.33902415  0.29332337     0.04000
C47         C  0.33388335  0.37825128  0.33467965    -0.12200
C48         C  0.36229122  0.36708357  0.37578181     0.01500
C49         C  0.36391594  0.31621550  0.37454990    -0.10700
C50         C  0.33391305  0.27461693  0.33417560     0.04000
C51         C  0.30387472  0.28650561  0.29405531    -0.10100
H52         H  0.33385263  0.41772986  0.33492104     0.09600
H53         H  0.38817736  0.30892921  0.40536648     0.07100
H54         H  0.27956231  0.25513974  0.26310647     0.07000
C55         C  0.16824404  0.47812200  0.04680939     0.04000
C56         C  0.11690737  0.47777415  0.03967641    -0.12200
C57         C  0.10676197  0.00118936  0.99270851     0.01500
C58         C  0.14926149  0.02555136  0.95257430    -0.10700
C59         C  0.20025833  0.02495761  0.95866132     0.04000
C60         C  0.20955538  0.00150580  0.00593799    -0.10100
H61         H  0.08425218  0.45857428  0.07076103     0.09600
H62         H  0.14328734  0.04612434  0.91711903     0.07100
H63         H  0.24900427  0.00200537  0.01109237     0.07000
C64         C  0.00538897  0.13904798  0.37606818     0.04000
C65         C  0.45288506  0.13740354  0.37481382    -0.12200
C66         C  0.44126571  0.16732405  0.33436500     0.01500
C67         C  0.98316528  0.19728395  0.29419574    -0.10700
C68         C  0.03411914  0.19574228  0.29349615     0.04000
C69         C  0.04494883  0.16740771  0.33492781    -0.10100
H70         H  0.42133736  0.11316520  0.40564634     0.09600
H71         H  0.97608511  0.22151836  0.26318249     0.07100
H72         H  0.08446213  0.16745172  0.33517802     0.07000
C73         C  0.13409484  0.49578746  0.37596390     0.04000
C74         C  0.18499453  0.04830555  0.37470564    -0.12200
C75         C  0.22656028  0.05990000  0.33430487     0.01500
C76         C  0.21461861  0.51796113  0.29418425    -0.10700
C77         C  0.16209957  0.46698866  0.29349101     0.04000
C78         C  0.12289847  0.45618506  0.33487630    -0.10100
H79         H  0.19231591  0.07987804  0.40550410     0.09600
H80         H  0.24595579  0.52503158  0.26320549     0.07100
H81         H  0.08341042  0.41665836  0.33513606     0.07000
O82         O  0.21786665  0.30958098  0.25541837    -0.77600
C83         C  0.15270156  0.42052690  0.25673434     0.83400
O84         O  0.11136900  0.21715504  0.23027707    -0.78700
O85         O  0.04540830  0.26419111  0.11498087    -0.80200
O86         O  0.21918862  0.45569907  0.11503075    -0.80000
O87         O  0.28400305  0.39486497  0.23013937    -0.78700
Zn88       Zn  0.16721333  0.33394255  0.23251346     1.55700
O89         O  0.12606381  0.39925639  0.10140484    -0.80000
Cd90       Cd  0.23864128  0.39887242  0.15818240     1.59700
Cd91       Cd  0.16065490  0.26247117  0.15824637     1.59600
O92         O  0.27347189  0.37497409  0.10116869    -0.80000
O93         O  0.16717253  0.33392867  0.16071368    -1.90500
Cd94       Cd  0.10221150  0.34040270  0.15829127     1.59900
O95         O  0.23683070  0.28187451  0.11491430    -0.80000
O96         O  0.10621959  0.38967178  0.23032921    -0.78700
C97         C  0.08056994  0.23280342  0.25671405     0.83900
C98         C  0.26834982  0.34840801  0.25660147     0.83500
O99         O  0.19157264  0.40896330  0.25542733    -0.77600
C100        C  0.17226197  0.44353808  0.09096769     0.84400
O101        O  0.09220032  0.28326813  0.25544197    -0.77700
C102        C  0.27153471  0.32877507  0.09074897     0.84500
C103        C  0.05757119  0.22945706  0.09087844     0.84800
O104        O  0.10182602  0.22752859  0.10133380    -0.80100
C105        C  0.02300569  0.19087548  0.04668780     0.04000
C106        C  0.02335444  0.13988864  0.03954294    -0.12200
C107        C  0.49989777  0.10629813  0.99258986     0.01500
C108        C  0.47549498  0.12441092  0.95247715    -0.10700
C109        C  0.47609211  0.17600815  0.95856019     0.04000
C110        C  0.49958541  0.20878288  0.00582057    -0.10100
H111        H  0.04256018  0.12643528  0.07061766     0.09600
H112        H  0.45488651  0.09783836  0.91704520     0.07100
H113        H  0.49908344  0.24773128  0.01098150     0.07000
C114        C  0.14913088  0.00741007  0.62108249     0.04000
C115        C  0.15123162  0.45701502  0.62079242    -0.12200
C116        C  0.16834952  0.43960471  0.66720534     0.01500
C117        C  0.18551014  0.97383352  0.71383418    -0.10700
C118        C  0.18720927  0.02611550  0.71415195     0.04000
C119        C  0.16808332  0.04257794  0.66776790    -0.10100
H120        H  0.13640263  0.42947797  0.58508600     0.09600
H121        H  0.20016247  0.96079222  0.74942869     0.07100
H122        H  0.16780333  0.08187118  0.66805807     0.07000
C123        C  0.49342379  0.14215316  0.62115870     0.04000
C124        C  0.04381509  0.19464736  0.62089839    -0.12200
C125        C  0.06125142  0.22913442  0.66733609     0.01500
C126        C  0.52702019  0.21204630  0.71395825    -0.10700
C127        C  0.47470491  0.16146426  0.71423722     0.04000
C128        C  0.45823620  0.12589790  0.66783309    -0.10100
H129        H  0.07135275  0.20739142  0.58519165     0.09600
H130        H  0.04006004  0.23972384  0.74956476     0.07100
H131        H  0.41892073  0.08631981  0.66809536     0.07000
O132        O  0.38766756  0.14813243  0.92571626    -0.77600
C133        C  0.31462409  0.25274301  0.92406716     0.83400
O134        O  0.27791024  0.04690503  0.89601715    -0.78700
O135        O  0.21072898  0.10169994  0.78035489    -0.80200
O136        O  0.39142819  0.29020564  0.78037774    -0.80000
O137        O  0.45409976  0.23162860  0.89582940    -0.78700
Zn138      Zn  0.33378212  0.16722203  0.90284100     1.55700
O139        O  0.29816191  0.23490555  0.76808836    -0.80000
Cd140      Cd  0.40615155  0.23122349  0.82480854     1.59700
Cd141      Cd  0.32544499  0.09474033  0.82493899     1.59600
O142        O  0.43713934  0.20272978  0.76812563    -0.80000
O143        O  0.33376457  0.16713355  0.83138988    -1.90500
Cd144      Cd  0.26969231  0.17542130  0.82480052     1.59900
O145        O  0.39915112  0.10947012  0.78051701    -0.80000
O146        O  0.26932726  0.22302405  0.89578947    -0.78700
C147        C  0.24824183  0.06255052  0.92424665     0.83900
C148        C  0.43846047  0.18636462  0.92418030     0.83500
O149        O  0.35289722  0.24026330  0.92554575    -0.77600
C150        C  0.34460362  0.27862667  0.75686998     0.84400
O151        O  0.26076752  0.11332890  0.92564391    -0.77700
C152        C  0.43439753  0.15628141  0.75695931     0.84500
C153        C  0.22227427  0.06640465  0.75693186     0.84800
O154        O  0.26593131  0.06363447  0.76825861    -0.80100
O155        O  0.97622828  0.05145490  0.41389185    -0.77600
C156        C  0.08805089  0.48657301  0.41314133     0.83400
O157        O  0.38283750  0.44298775  0.44015908    -0.78700
O158        O  0.43534872  0.37715469  0.55560979    -0.80200
O159        O  0.12377921  0.05877218  0.55570152    -0.80000
O160        O  0.06066999  0.11842427  0.44049595    -0.78700
Zn161      Zn  0.00061901  0.00064608  0.43667851     1.54500
O162        O  0.06926626  0.96541751  0.56874413    -0.80000
Cd163      Cd  0.06372366  0.07310643  0.51246773     1.59700
Cd164      Cd  0.42790082  0.49121691  0.51227756     1.59600
O165        O  0.53545274  0.10427984  0.56895117    -0.80000
O166        O  0.00046465  0.00052776  0.50826945    -1.90500
Cd167      Cd  0.00973339  0.43723176  0.51231385     1.59900
O168        O  0.44217031  0.06556176  0.55559253    -0.80000
O169        O  0.05805749  0.44041237  0.44026044    -0.78700
C170        C  0.39909301  0.41313600  0.41296625     0.83900
C171        C  0.01460207  0.10219613  0.41321431     0.83500
O172        O  0.07587700  0.52506574  0.41403976    -0.77600
C173        C  0.11300604  0.01213161  0.57920446     0.84400
O174        O  0.44980478  0.42544800  0.41381410    -0.77700
C175        C  0.48874474  0.10133461  0.57927352     0.84500
C176        C  0.39948935  0.38790547  0.57912844     0.84800
O177        O  0.39650264  0.43162308  0.56865366    -0.80100
C178        C  0.05230947  0.50094178  0.98702148     0.04000
C179        C  0.00074570  0.94961932  0.98679996    -0.12200
C180        C  0.44895311  0.94872721  0.98688469     0.01500
C181        C  0.44922465  0.00028298  0.98670947    -0.10700
C182        C  0.50013968  0.55209820  0.98694420     0.04000
C183        C  0.05143501  0.55185496  0.98685179    -0.10100
H184        H  0.00094827  0.91030185  0.98844549     0.09600
H185        H  0.40969489  0.00005779  0.98829268     0.07100
H186        H  0.09075345  0.59139417  0.98852969     0.07000
C187        C  0.21809805  0.83318892  0.66726244     0.04000
C188        C  0.16649495  0.78246094  0.66732852    -0.12200
C189        C  0.11549941  0.78278816  0.66729401     0.01500
C190        C  0.11639082  0.83438200  0.66723195    -0.10700
C191        C  0.16773581  0.88539188  0.66717602     0.04000
C192        C  0.21844660  0.88452517  0.66719899    -0.10100
H193        H  0.16602026  0.74276685  0.66739055     0.09600
H194        H  0.07716433  0.83483818  0.66723368     0.07100
H195        H  0.25814665  0.92376483  0.66717610     0.07000
C196        C  0.33391040  0.71934679  0.33402194     0.04000
C197        C  0.28270676  0.66724833  0.33402515    -0.12200
C198        C  0.28182480  0.61516708  0.33408715     0.01500
C199        C  0.33390734  0.61606640  0.33414037    -0.10700
C200        C  0.38599747  0.66728897  0.33413976     0.04000
C201        C  0.38511826  0.71848646  0.33408272    -0.10100
H202        H  0.24326306  0.66723305  0.33404524     0.09600
H203        H  0.33390170  0.57662432  0.33424070     0.07100
H204        H  0.42456480  0.75793986  0.33414006     0.07000
C205        C  0.31008862  0.83278003  0.04654832     0.04000
C206        C  0.29216787  0.79145152  0.00567290    -0.12200
C207        C  0.32497043  0.80074087  0.95843223     0.01500
C208        C  0.37659737  0.85175426  0.95237927    -0.10700
C209        C  0.39472264  0.89426015  0.99250344     0.04000
C210        C  0.36110976  0.88411710  0.03943184    -0.10100
H211        H  0.25319668  0.75199220  0.01081959     0.09600
H212        H  0.40318694  0.85773213  0.91696549     0.07100
H213        H  0.37457566  0.91677281  0.07051300     0.07000
C214        C  0.33940725  0.81376685  0.71414933     0.04000
C215        C  0.37494897  0.83288063  0.66772930    -0.12200
C216        C  0.35868701  0.85181545  0.62106154     0.01500
C217        C  0.30620791  0.84970528  0.62082706    -0.10700
C218        C  0.27172956  0.83261335  0.66727443     0.04000
C219        C  0.28882898  0.81546925  0.71388913    -0.10100
H220        H  0.41451464  0.83314965  0.66797298     0.09600
H221        H  0.29345595  0.86449921  0.58512586     0.07100
H222        H  0.26116540  0.80081038  0.74950730     0.07000
C223        C  0.30545252  0.83901577  0.29332379     0.04000
C224        C  0.33389154  0.87824490  0.33467668    -0.12200
C225        C  0.36230050  0.86707952  0.37577853     0.01500
C226        C  0.36392457  0.81621085  0.37454965    -0.10700
C227        C  0.33391800  0.77460934  0.33417875     0.04000
C228        C  0.30387844  0.78649634  0.29405856    -0.10100
H229        H  0.33386104  0.91772453  0.33491616     0.09600
H230        H  0.38818742  0.80892619  0.40536605     0.07100
H231        H  0.27956414  0.75512967  0.26311320     0.07000
C232        C  0.16824166  0.97811312  0.04682076     0.04000
C233        C  0.11690395  0.97776209  0.03968292    -0.12200
C234        C  0.10676447  0.50120482  0.99270528     0.01500
C235        C  0.14926237  0.52556769  0.95256976    -0.10700
C236        C  0.20025851  0.52497117  0.95865187     0.04000
C237        C  0.20955609  0.50151534  0.00592513    -0.10100
H238        H  0.08424835  0.95856397  0.07076629     0.09600
H239        H  0.14328661  0.54614195  0.91711587     0.07100
H240        H  0.24900522  0.50201204  0.01107595     0.07000
C241        C  0.00538575  0.63903672  0.37607781     0.04000
C242        C  0.45288113  0.63739051  0.37482014    -0.12200
C243        C  0.44126157  0.66730852  0.33436874     0.01500
C244        C  0.98316214  0.69726802  0.29420004    -0.10700
C245        C  0.03411717  0.69572842  0.29350351     0.04000
C246        C  0.04494684  0.66739609  0.33493787    -0.10100
H247        H  0.42133363  0.61315390  0.40565256     0.09600
H248        H  0.97608241  0.72150137  0.26318550     0.07100
H249        H  0.08445992  0.66744219  0.33519083     0.07000
C250        C  0.13410554  0.99579486  0.37597425     0.04000
C251        C  0.18498650  0.54829663  0.37470094    -0.12200
C252        C  0.22655341  0.55989297  0.33430060     0.01500
C253        C  0.21462750  0.01796316  0.29419430    -0.10700
C254        C  0.16211037  0.96698872  0.29350664     0.04000
C255        C  0.12291042  0.95618775  0.33489207    -0.10100
H256        H  0.19230930  0.57986441  0.40550274     0.09600
H257        H  0.24596348  0.02503211  0.26321506     0.07100
H258        H  0.08342465  0.91666118  0.33515520     0.07000
O259        O  0.21787096  0.80957220  0.25542406    -0.77600
C260        C  0.15270949  0.92052379  0.25675312     0.83400
O261        O  0.11136647  0.71714380  0.23028150    -0.78700
O262        O  0.04540189  0.76419103  0.11500113    -0.80200
O263        O  0.21918844  0.95569471  0.11504378    -0.80000
O264        O  0.28400658  0.89485657  0.23014380    -0.78700
Zn265      Zn  0.16721679  0.83393535  0.23252925     1.55700
O266        O  0.12606263  0.89925363  0.10142511    -0.80000
Cd267      Cd  0.23864177  0.89886731  0.15819214     1.59700
Cd268      Cd  0.16065169  0.76246529  0.15825157     1.59600
O269        O  0.27346763  0.87497016  0.10117139    -0.80000
O270        O  0.16717217  0.83392394  0.16072930    -1.90500
Cd271      Cd  0.10221214  0.84040001  0.15831147     1.59900
O272        O  0.23682156  0.78186860  0.11490563    -0.80000
O273        O  0.10622625  0.88966981  0.23034963    -0.78700
C274        C  0.08057018  0.73279222  0.25672406     0.83900
C275        C  0.26835435  0.84839888  0.25660419     0.83500
O276        O  0.19157835  0.90895679  0.25544658    -0.77600
C277        C  0.17226063  0.94353349  0.09098330     0.84400
O278        O  0.09220467  0.78325863  0.25546020    -0.77700
C279        C  0.27152639  0.82877078  0.09074328     0.84500
C280        C  0.05756200  0.72945733  0.09089374     0.84800
O281        O  0.10181756  0.72752821  0.10134323    -0.80100
C282        C  0.02299243  0.69087630  0.04670414     0.04000
C283        C  0.02334282  0.63989059  0.03955577    -0.12200
C284        C  0.49988722  0.60630186  0.99260155     0.01500
C285        C  0.47548248  0.62441480  0.95249115    -0.10700
C286        C  0.47607678  0.67601036  0.95857750     0.04000
C287        C  0.49956927  0.70878343  0.00583936    -0.10100
H288        H  0.04255009  0.62643708  0.07062888     0.09600
H289        H  0.45487600  0.59784410  0.91705702     0.07100
H290        H  0.49906673  0.74773202  0.01100205     0.07000
C291        C  0.14913216  0.50739254  0.62108023     0.04000
C292        C  0.15123506  0.95703482  0.62078980    -0.12200
C293        C  0.16834330  0.93961702  0.66720426     0.01500
C294        C  0.18553045  0.47383095  0.71382852    -0.10700
C295        C  0.18722862  0.52611257  0.71414234     0.04000
C296        C  0.16809464  0.54256793  0.66775953    -0.10100
H297        H  0.13641424  0.92950370  0.58507862     0.09600
H298        H  0.20018979  0.46079446  0.74942318     0.07100
H299        H  0.16781533  0.58186220  0.66804641     0.07000
C300        C  0.49344064  0.64215499  0.62116917     0.04000
C301        C  0.04383158  0.69464975  0.62090404    -0.12200
C302        C  0.06126339  0.72914673  0.66733501     0.01500
C303        C  0.52703043  0.71206612  0.71395564    -0.10700
C304        C  0.47471800  0.66148187  0.71424041     0.04000
C305        C  0.45825178  0.62590715  0.66784249    -0.10100
H306        H  0.07137072  0.70738861  0.58519823     0.09600
H307        H  0.04006855  0.73975017  0.74955789     0.07100
H308        H  0.41893726  0.58632777  0.66810913     0.07000
O309        O  0.38765686  0.64813619  0.92571853    -0.77600
C310        C  0.31461764  0.75274473  0.92405540     0.83400
O311        O  0.27791814  0.54692038  0.89601697    -0.78700
O312        O  0.21074355  0.60170333  0.78033567    -0.80200
O313        O  0.39143199  0.79022192  0.78038523    -0.80000
O314        O  0.45409277  0.73163530  0.89584336    -0.78700
Zn315      Zn  0.33377717  0.66722863  0.90282859     1.55700
O316        O  0.29816855  0.73491747  0.76807684    -0.80000
Cd317      Cd  0.40615764  0.73123756  0.82481240     1.59700
Cd318      Cd  0.32545691  0.59475282  0.82493812     1.59600
O319        O  0.43715282  0.70274769  0.76813152    -0.80000
O320        O  0.33377174  0.66714474  0.83137799    -1.90500
Cd321      Cd  0.26969747  0.67542821  0.82478418     1.59900
O322        O  0.39916583  0.60948739  0.78052048    -0.80000
O323        O  0.26932248  0.72302500  0.89577547    -0.78700
C324        C  0.24824047  0.56256291  0.92423477     0.83900
C325        C  0.43844955  0.68636954  0.92419258     0.83500
O326        O  0.35289260  0.74026787  0.92553418    -0.77600
C327        C  0.34461047  0.77864354  0.75687033     0.84400
O328        O  0.26075752  0.61333888  0.92561968    -0.77700
C329        C  0.43441171  0.65629952  0.75696376     0.84500
C330        C  0.22229095  0.56640587  0.75692058     0.84800
O331        O  0.26594745  0.56363740  0.76825433    -0.80100
O332        O  0.97622003  0.55144710  0.41391282    -0.77600
C333        C  0.08806028  0.98658267  0.41314796     0.83400
O334        O  0.38284054  0.94298472  0.44014950    -0.78700
O335        O  0.43535404  0.87717098  0.55561447    -0.80200
O336        O  0.12378032  0.55875535  0.55570195    -0.80000
O337        O  0.06066950  0.61841157  0.44050181    -0.78700
Zn338      Zn  0.00061210  0.50063701  0.43669016     1.54500
O339        O  0.06926661  0.46540005  0.56874203    -0.80000
Cd340      Cd  0.06372604  0.57309493  0.51247444     1.59700
Cd341      Cd  0.42789884  0.99122411  0.51226301     1.59600
O342        O  0.53546471  0.60427571  0.56896113    -0.80000
O343        O  0.00046522  0.50051641  0.50828109    -1.90500
Cd344      Cd  0.00973561  0.93724555  0.51231421     1.59900
O345        O  0.44218088  0.56555676  0.55561090    -0.80000
O346        O  0.05806390  0.94042251  0.44026667    -0.78700
C347        C  0.39910080  0.91313543  0.41295935     0.83900
C348        C  0.01459840  0.60218611  0.41322672     0.83500
O349        O  0.07588727  0.02507612  0.41404164    -0.77600
C350        C  0.11300689  0.51211385  0.57920287     0.84400
O351        O  0.44981474  0.92545453  0.41380458    -0.77700
C352        C  0.48875783  0.60133168  0.57928705     0.84500
C353        C  0.39949451  0.88792357  0.57912950     0.84800
O354        O  0.39650497  0.93163789  0.56864583    -0.80100
C355        C  0.55230823  0.00092853  0.98702225     0.04000
C356        C  0.50074912  0.44963051  0.98679786    -0.12200
C357        C  0.94895473  0.44873394  0.98688596     0.01500
C358        C  0.94922162  0.50028740  0.98671458    -0.10700
C359        C  0.00014519  0.05209158  0.98693758     0.04000
C360        C  0.55143795  0.05184382  0.98684798    -0.10100
H361        H  0.50095506  0.41031539  0.98844056     0.09600
H362        H  0.90969039  0.50005874  0.98830104     0.07100
H363        H  0.59075803  0.09138139  0.98852504     0.07000
C364        C  0.71808920  0.33316510  0.66725589     0.04000
C365        C  0.66648342  0.28244000  0.66732600    -0.12200
C366        C  0.61549053  0.28277281  0.66729899     0.01500
C367        C  0.61638753  0.33436936  0.66724007    -0.10700
C368        C  0.66773548  0.38537640  0.66718101     0.04000
C369        C  0.71844331  0.38450404  0.66719702    -0.10100
H370        H  0.66600450  0.24274355  0.66738504     0.09600
H371        H  0.57716338  0.33482975  0.66724479     0.07100
H372        H  0.75814497  0.42374089  0.66717128     0.07000
C373        C  0.83390943  0.21935623  0.33401666     0.04000
C374        C  0.78270744  0.16725589  0.33402208    -0.12200
C375        C  0.78182916  0.11517624  0.33408599     0.01500
C376        C  0.83391290  0.11607899  0.33413905    -0.10700
C377        C  0.88600122  0.16730308  0.33413643     0.04000
C378        C  0.88511893  0.21849913  0.33407750    -0.10100
H379        H  0.74326354  0.16723802  0.33404311     0.09600
H380        H  0.83390978  0.07663798  0.33424056     0.07100
H381        H  0.92456514  0.25795469  0.33413371     0.07000
C382        C  0.81009931  0.33278195  0.04655821     0.04000
C383        C  0.79217917  0.29145137  0.00568537    -0.12200
C384        C  0.82497898  0.30074045  0.95844298     0.01500
C385        C  0.87660319  0.35175596  0.95238561    -0.10700
C386        C  0.89472771  0.39426410  0.99250771     0.04000
C387        C  0.86111794  0.38412047  0.03943850    -0.10100
H388        H  0.75320938  0.25199131  0.01083426     0.09600
H389        H  0.90319069  0.35773399  0.91697032     0.07100
H390        H  0.87458264  0.41677736  0.07051770     0.07000
C391        C  0.83939689  0.31374227  0.71414272     0.04000
C392        C  0.87493987  0.33285696  0.66772388    -0.12200
C393        C  0.85867863  0.35179101  0.62105491     0.01500
C394        C  0.80619807  0.34967812  0.62081801    -0.10700
C395        C  0.77171826  0.33258479  0.66726457     0.04000
C396        C  0.78881748  0.31544214  0.71388016    -0.10100
H397        H  0.91450832  0.33312933  0.66797020     0.09600
H398        H  0.79344738  0.36447417  0.58511610     0.07100
H399        H  0.76115391  0.30078476  0.74949799     0.07000
C400        C  0.80544672  0.33902415  0.29332337     0.04000
C401        C  0.83388332  0.37825127  0.33467970    -0.12200
C402        C  0.86229118  0.36708357  0.37578183     0.01500
C403        C  0.86391596  0.31621554  0.37454986    -0.10700
C404        C  0.83391308  0.27461692  0.33417561     0.04000
C405        C  0.80387470  0.28650555  0.29405537    -0.10100
H406        H  0.83385263  0.41772976  0.33492103     0.09600
H407        H  0.88817740  0.30892926  0.40536648     0.07100
H408        H  0.77956235  0.25513976  0.26310649     0.07000
C409        C  0.66824402  0.47812197  0.04680940     0.04000
C410        C  0.61690733  0.47777409  0.03967638    -0.12200
C411        C  0.60676200  0.00118938  0.99270848     0.01500
C412        C  0.64926152  0.02555135  0.95257436    -0.10700
C413        C  0.70025847  0.02495767  0.95866130     0.04000
C414        C  0.70955552  0.00150584  0.00593792    -0.10100
H415        H  0.58425230  0.45857442  0.07076098     0.09600
H416        H  0.64328719  0.04612465  0.91711865     0.07100
H417        H  0.74900549  0.00200542  0.01109236     0.07000
C418        C  0.50538881  0.13904791  0.37606827     0.04000
C419        C  0.95288519  0.13740357  0.37481378    -0.12200
C420        C  0.94126580  0.16732411  0.33436492     0.01500
C421        C  0.48316523  0.19728393  0.29419580    -0.10700
C422        C  0.53411908  0.19574232  0.29349621     0.04000
C423        C  0.54494873  0.16740771  0.33492784    -0.10100
H424        H  0.92133808  0.11316551  0.40564595     0.09600
H425        H  0.47608507  0.22151834  0.26318253     0.07100
H426        H  0.58446205  0.16745175  0.33517799     0.07000
C427        C  0.63409492  0.49578739  0.37596392     0.04000
C428        C  0.68499457  0.04830556  0.37470564    -0.12200
C429        C  0.72656033  0.05990001  0.33430487     0.01500
C430        C  0.71461861  0.51796111  0.29418428    -0.10700
C431        C  0.66209959  0.46698863  0.29349100     0.04000
C432        C  0.62289847  0.45618503  0.33487624    -0.10100
H433        H  0.69231596  0.07987805  0.40550410     0.09600
H434        H  0.74595583  0.52503158  0.26320551     0.07100
H435        H  0.58341049  0.41665840  0.33513600     0.07000
O436        O  0.71786661  0.30958096  0.25541833    -0.77600
C437        C  0.65270160  0.42052690  0.25673435     0.83400
O438        O  0.61136892  0.21715502  0.23027699    -0.78700
O439        O  0.54540834  0.26419112  0.11498087    -0.80200
O440        O  0.71918849  0.45569894  0.11503071    -0.80000
O441        O  0.78400304  0.39486494  0.23013940    -0.78700
Zn442      Zn  0.66721334  0.33394256  0.23251345     1.55700
O443        O  0.62606382  0.39925640  0.10140493    -0.80000
Cd444      Cd  0.73864129  0.39887242  0.15818241     1.59700
Cd445      Cd  0.66065493  0.26247117  0.15824636     1.59600
O446        O  0.77347188  0.37497410  0.10116872    -0.80000
O447        O  0.66717257  0.33392868  0.16071366    -1.90500
Cd448      Cd  0.60221154  0.34040271  0.15829127     1.59900
O449        O  0.73683072  0.28187453  0.11491428    -0.80000
O450        O  0.60621963  0.38967177  0.23032923    -0.78700
C451        C  0.58056987  0.23280344  0.25671401     0.83900
C452        C  0.76834980  0.34840799  0.25660152     0.83500
O453        O  0.69157269  0.40896331  0.25542733    -0.77600
C454        C  0.67226189  0.44353807  0.09096773     0.84400
O455        O  0.59220030  0.28326820  0.25544208    -0.77700
C456        C  0.77153469  0.32877508  0.09074892     0.84500
C457        C  0.55757123  0.22945707  0.09087843     0.84800
O458        O  0.60182606  0.22752860  0.10133377    -0.80100
C459        C  0.52300571  0.19087548  0.04668782     0.04000
C460        C  0.52335445  0.13988864  0.03954290    -0.12200
C461        C  0.99989777  0.10629812  0.99258994     0.01500
C462        C  0.97549495  0.12441085  0.95247718    -0.10700
C463        C  0.97609201  0.17600810  0.95856023     0.04000
C464        C  0.99958536  0.20878288  0.00582053    -0.10100
H465        H  0.54256024  0.12643530  0.07061761     0.09600
H466        H  0.95488697  0.09783846  0.91704530     0.07100
H467        H  0.99908344  0.24773129  0.01098140     0.07000
C468        C  0.64913077  0.00740993  0.62108256     0.04000
C469        C  0.65123158  0.45701502  0.62079243    -0.12200
C470        C  0.66834936  0.43960464  0.66720534     0.01500
C471        C  0.68551016  0.97383342  0.71383426    -0.10700
C472        C  0.68720926  0.02611530  0.71415206     0.04000
C473        C  0.66808328  0.04257779  0.66776797    -0.10100
H474        H  0.63640195  0.42947763  0.58508621     0.09600
H475        H  0.70016305  0.96079208  0.74942906     0.07100
H476        H  0.66780364  0.08187071  0.66805804     0.07000
C477        C  0.99342382  0.14215315  0.62115872     0.04000
C478        C  0.54381513  0.19464731  0.62089846    -0.12200
C479        C  0.56125136  0.22913444  0.66733612     0.01500
C480        C  0.02702021  0.21204630  0.71395824    -0.10700
C481        C  0.97470490  0.16146424  0.71423726     0.04000
C482        C  0.95823616  0.12589790  0.66783310    -0.10100
H483        H  0.57135272  0.20739135  0.58519182     0.09600
H484        H  0.54005998  0.23972380  0.74956480     0.07100
H485        H  0.91892085  0.08631985  0.66809544     0.07000
O486        O  0.88766759  0.14813243  0.92571636    -0.77600
C487        C  0.81462401  0.25274298  0.92406713     0.83400
O488        O  0.77791016  0.04690500  0.89601717    -0.78700
O489        O  0.71072899  0.10169988  0.78035487    -0.80200
O490        O  0.89142829  0.29020568  0.78037780    -0.80000
O491        O  0.95409969  0.23162854  0.89582935    -0.78700
Zn492      Zn  0.83378213  0.16722204  0.90284101     1.55700
O493        O  0.79816199  0.23490563  0.76808838    -0.80000
Cd494      Cd  0.90615157  0.23122350  0.82480852     1.59700
Cd495      Cd  0.82544483  0.09474033  0.82493897     1.59600
O496        O  0.93713936  0.20272978  0.76812565    -0.80000
O497        O  0.83376454  0.16713362  0.83138990    -1.90500
Cd498      Cd  0.76969229  0.17542131  0.82480052     1.59900
O499        O  0.89915095  0.10947011  0.78051709    -0.80000
O500        O  0.76932711  0.22302408  0.89578943    -0.78700
C501        C  0.74824177  0.06255053  0.92424661     0.83900
C502        C  0.93846043  0.18636462  0.92418034     0.83500
O503        O  0.85289720  0.24026328  0.92554577    -0.77600
C504        C  0.84460373  0.27862667  0.75686995     0.84400
O505        O  0.76076752  0.11332891  0.92564391    -0.77700
C506        C  0.93439748  0.15628138  0.75695939     0.84500
C507        C  0.72227432  0.06640463  0.75693181     0.84800
O508        O  0.76593133  0.06363443  0.76825861    -0.80100
O509        O  0.47622830  0.05145489  0.41389188    -0.77600
C510        C  0.58805076  0.48657302  0.41314109     0.83400
O511        O  0.88283753  0.44298777  0.44015911    -0.78700
O512        O  0.93534869  0.37715467  0.55560980    -0.80200
O513        O  0.62377920  0.05877214  0.55570152    -0.80000
O514        O  0.56066999  0.11842426  0.44049592    -0.78700
Zn515      Zn  0.50061905  0.00064611  0.43667851     1.54500
O516        O  0.56926625  0.96541754  0.56874436    -0.80000
Cd517      Cd  0.56372366  0.07310641  0.51246770     1.59700
Cd518      Cd  0.92790083  0.49121690  0.51227755     1.59600
O519        O  0.03545270  0.10427987  0.56895122    -0.80000
O520        O  0.50046462  0.00052775  0.50826943    -1.90500
Cd521      Cd  0.50973342  0.43723178  0.51231383     1.59900
O522        O  0.94217023  0.06556173  0.55559252    -0.80000
O523        O  0.55805753  0.44041244  0.44026029    -0.78700
C524        C  0.89909293  0.41313600  0.41296626     0.83900
C525        C  0.51460206  0.10219612  0.41321433     0.83500
O526        O  0.57587685  0.52506578  0.41403968    -0.77600
C527        C  0.61300607  0.01213161  0.57920451     0.84400
O528        O  0.94980464  0.42544802  0.41381416    -0.77700
C529        C  0.98874468  0.10133462  0.57927349     0.84500
C530        C  0.89948932  0.38790547  0.57912843     0.84800
O531        O  0.89650261  0.43162307  0.56865367    -0.80100
C532        C  0.55230945  0.50094167  0.98702144     0.04000
C533        C  0.50074564  0.94961936  0.98679996    -0.12200
C534        C  0.94895329  0.94872718  0.98688472     0.01500
C535        C  0.94922481  0.00028299  0.98670947    -0.10700
C536        C  0.00013958  0.55209817  0.98694423     0.04000
C537        C  0.55143505  0.55185487  0.98685180    -0.10100
H538        H  0.50094821  0.91030187  0.98844549     0.09600
H539        H  0.90969621  0.00005781  0.98829263     0.07100
H540        H  0.59075356  0.59139399  0.98852968     0.07000
C541        C  0.71809800  0.83318889  0.66726237     0.04000
C542        C  0.66649492  0.78246093  0.66732851    -0.12200
C543        C  0.61549943  0.78278819  0.66729406     0.01500
C544        C  0.61639084  0.83438206  0.66723196    -0.10700
C545        C  0.66773583  0.88539192  0.66717600     0.04000
C546        C  0.71844656  0.88452516  0.66719898    -0.10100
H547        H  0.66602017  0.74276668  0.66739055     0.09600
H548        H  0.57716458  0.83483827  0.66723368     0.07100
H549        H  0.75814666  0.92376481  0.66717611     0.07000
C550        C  0.83391040  0.71934682  0.33402195     0.04000
C551        C  0.78270678  0.66724833  0.33402516    -0.12200
C552        C  0.78182482  0.61516707  0.33408717     0.01500
C553        C  0.83390735  0.61606639  0.33414037    -0.10700
C554        C  0.88599747  0.66728899  0.33413976     0.04000
C555        C  0.88511828  0.71848649  0.33408274    -0.10100
H556        H  0.74326308  0.66723304  0.33404524     0.09600
H557        H  0.83390173  0.57662432  0.33424070     0.07100
H558        H  0.92456483  0.75793990  0.33414007     0.07000
C559        C  0.81008857  0.83278004  0.04654830     0.04000
C560        C  0.79216787  0.79145147  0.00567292    -0.12200
C561        C  0.82497043  0.80074086  0.95843226     0.01500
C562        C  0.87659739  0.85175425  0.95237933    -0.10700
C563        C  0.89472263  0.89426021  0.99250339     0.04000
C564        C  0.86110978  0.88411716  0.03943176    -0.10100
H565        H  0.75319671  0.75199206  0.01081965     0.09600
H566        H  0.90318701  0.85773210  0.91696567     0.07100
H567        H  0.87457565  0.91677310  0.07051271     0.07000
C568        C  0.83940714  0.81376682  0.71414946     0.04000
C569        C  0.87494888  0.83288062  0.66772940    -0.12200
C570        C  0.85868697  0.85181544  0.62106159     0.01500
C571        C  0.80620790  0.84970527  0.62082709    -0.10700
C572        C  0.77172948  0.83261329  0.66727449     0.04000
C573        C  0.78882894  0.81546922  0.71388913    -0.10100
H574        H  0.91451448  0.83314962  0.66797310     0.09600
H575        H  0.79345593  0.86449921  0.58512583     0.07100
H576        H  0.76116478  0.80080999  0.74950786     0.07000
C577        C  0.80545250  0.83901579  0.29332371     0.04000
C578        C  0.83389148  0.87824496  0.33467663    -0.12200
C579        C  0.86230043  0.86707958  0.37577843     0.01500
C580        C  0.86392446  0.81621084  0.37454971    -0.10700
C581        C  0.83391787  0.77460934  0.33417868     0.04000
C582        C  0.80387841  0.78649635  0.29405844    -0.10100
H583        H  0.83386110  0.91772454  0.33491596     0.09600
H584        H  0.88818636  0.80892612  0.40536584     0.07100
H585        H  0.77956421  0.75512972  0.26311303     0.07000
C586        C  0.66824187  0.97811314  0.04682070     0.04000
C587        C  0.61690404  0.97776211  0.03968288    -0.12200
C588        C  0.60676452  0.50120485  0.99270533     0.01500
C589        C  0.64926247  0.52556759  0.95256975    -0.10700
C590        C  0.70025858  0.52497107  0.95865198     0.04000
C591        C  0.70955611  0.50151529  0.00592520    -0.10100
H592        H  0.58424839  0.95856396  0.07076629     0.09600
H593        H  0.64328706  0.54614181  0.91711616     0.07100
H594        H  0.74900527  0.50201202  0.01107600     0.07000
C595        C  0.50538574  0.63903672  0.37607782     0.04000
C596        C  0.95288111  0.63739051  0.37482014    -0.12200
C597        C  0.94126155  0.66730853  0.33436874     0.01500
C598        C  0.48316215  0.69726802  0.29420004    -0.10700
C599        C  0.53411716  0.69572842  0.29350353     0.04000
C600        C  0.54494682  0.66739609  0.33493788    -0.10100
H601        H  0.92133361  0.61315391  0.40565254     0.09600
H602        H  0.47608245  0.72150139  0.26318548     0.07100
H603        H  0.58445987  0.66744218  0.33519083     0.07000
C604        C  0.63410558  0.99579487  0.37597425     0.04000
C605        C  0.68498650  0.54829662  0.37470091    -0.12200
C606        C  0.72655342  0.55989296  0.33430061     0.01500
C607        C  0.71462754  0.01796316  0.29419430    -0.10700
C608        C  0.66211040  0.96698872  0.29350664     0.04000
C609        C  0.62291046  0.95618775  0.33489207    -0.10100
H610        H  0.69230924  0.57986433  0.40550271     0.09600
H611        H  0.74596351  0.02503210  0.26321507     0.07100
H612        H  0.58342469  0.91666118  0.33515520     0.07000
O613        O  0.71787098  0.80957220  0.25542403    -0.77600
C614        C  0.65270953  0.92052379  0.25675312     0.83400
O615        O  0.61136641  0.71714377  0.23028152    -0.78700
O616        O  0.54540188  0.76419103  0.11500111    -0.80200
O617        O  0.71918849  0.95569472  0.11504378    -0.80000
O618        O  0.78400660  0.89485657  0.23014377    -0.78700
Zn619      Zn  0.66721682  0.83393535  0.23252925     1.55700
O620        O  0.62606267  0.89925364  0.10142510    -0.80000
Cd621      Cd  0.73864180  0.89886732  0.15819214     1.59700
Cd622      Cd  0.66065155  0.76246531  0.15825155     1.59600
O623        O  0.77346761  0.87497013  0.10117142    -0.80000
O624        O  0.66717214  0.83392401  0.16072932    -1.90500
Cd625      Cd  0.60221216  0.84040003  0.15831146     1.59900
O626        O  0.73682139  0.78186856  0.11490571    -0.80000
O627        O  0.60622629  0.88966981  0.23034963    -0.78700
C628        C  0.58057016  0.73279222  0.25672409     0.83900
C629        C  0.76835436  0.84839888  0.25660413     0.83500
O630        O  0.69157839  0.90895679  0.25544659    -0.77600
C631        C  0.67226068  0.94353349  0.09098330     0.84400
O632        O  0.59220469  0.78325864  0.25546021    -0.77700
C633        C  0.77152629  0.82877073  0.09074332     0.84500
C634        C  0.55756198  0.72945732  0.09089372     0.84800
O635        O  0.60181750  0.72752819  0.10134319    -0.80100
C636        C  0.52299247  0.69087621  0.04670423     0.04000
C637        C  0.52334292  0.63989057  0.03955580    -0.12200
C638        C  0.99988721  0.60630189  0.99260150     0.01500
C639        C  0.97548242  0.62441473  0.95249118    -0.10700
C640        C  0.97607674  0.67601037  0.95857747     0.04000
C641        C  0.99956924  0.70878351  0.00583931    -0.10100
H642        H  0.54255075  0.62643695  0.07062922     0.09600
H643        H  0.95487652  0.59784429  0.91705712     0.07100
H644        H  0.99906676  0.74773210  0.01100199     0.07000
C645        C  0.64913210  0.50739253  0.62108028     0.04000
C646        C  0.65123500  0.95703479  0.62078979    -0.12200
C647        C  0.66834337  0.93961703  0.66720429     0.01500
C648        C  0.68553048  0.47383096  0.71382845    -0.10700
C649        C  0.68722862  0.52611259  0.71414231     0.04000
C650        C  0.66809468  0.54256797  0.66775952    -0.10100
H651        H  0.63641410  0.92950368  0.58507861     0.09600
H652        H  0.70018988  0.46079450  0.74942303     0.07100
H653        H  0.66781548  0.58186234  0.66804638     0.07000
C654        C  0.99344065  0.64215502  0.62116914     0.04000
C655        C  0.54383156  0.69464973  0.62090410    -0.12200
C656        C  0.56126334  0.72914681  0.66733502     0.01500
C657        C  0.02703050  0.71206608  0.71395566    -0.10700
C658        C  0.97471807  0.66148182  0.71424050     0.04000
C659        C  0.95825182  0.62590717  0.66784253    -0.10100
H660        H  0.57137072  0.70738851  0.58519838     0.09600
H661        H  0.54006814  0.73975050  0.74955771     0.07100
H662        H  0.91893731  0.58632785  0.66810916     0.07000
O663        O  0.88765677  0.64813626  0.92571851    -0.77600
C664        C  0.81461765  0.75274476  0.92405539     0.83400
O665        O  0.77791810  0.54692040  0.89601699    -0.78700
O666        O  0.71074356  0.60170333  0.78033566    -0.80200
O667        O  0.89143198  0.79022193  0.78038519    -0.80000
O668        O  0.95409278  0.73163533  0.89584333    -0.78700
Zn669      Zn  0.83377706  0.66722863  0.90282859     1.55700
O670        O  0.79816854  0.73491745  0.76807686    -0.80000
Cd671      Cd  0.90615767  0.73123756  0.82481238     1.59700
Cd672      Cd  0.82545678  0.59475285  0.82493809     1.59600
O673        O  0.93715292  0.70274773  0.76813150    -0.80000
O674        O  0.83377165  0.66714480  0.83137801    -1.90500
Cd675      Cd  0.76969748  0.67542822  0.82478417     1.59900
O676        O  0.89916572  0.60948742  0.78052053    -0.80000
O677        O  0.76932250  0.72302502  0.89577547    -0.78700
C678        C  0.74824042  0.56256287  0.92423483     0.83900
C679        C  0.93844950  0.68636955  0.92419253     0.83500
O680        O  0.85289259  0.74026788  0.92553419    -0.77600
C681        C  0.84461044  0.77864355  0.75687037     0.84400
O682        O  0.76075735  0.61333881  0.92561970    -0.77700
C683        C  0.93441174  0.65629952  0.75696383     0.84500
C684        C  0.72229092  0.56640585  0.75692055     0.84800
O685        O  0.76594739  0.56363736  0.76825428    -0.80100
O686        O  0.47622003  0.55144709  0.41391285    -0.77600
C687        C  0.58806032  0.98658267  0.41314797     0.83400
O688        O  0.88284053  0.94298477  0.44014953    -0.78700
O689        O  0.93535406  0.87717096  0.55561450    -0.80200
O690        O  0.62378035  0.55875539  0.55570193    -0.80000
O691        O  0.56066950  0.61841155  0.44050178    -0.78700
Zn692      Zn  0.50061210  0.50063700  0.43669014     1.54500
O693        O  0.56926662  0.46540009  0.56874198    -0.80000
Cd694      Cd  0.56372606  0.57309494  0.51247444     1.59700
Cd695      Cd  0.92789888  0.99122410  0.51226303     1.59600
O696        O  0.03546473  0.60427572  0.56896113    -0.80000
O697        O  0.50046524  0.50051642  0.50828111    -1.90500
Cd698      Cd  0.50973562  0.93724555  0.51231423     1.59900
O699        O  0.94218086  0.56555675  0.55561091    -0.80000
O700        O  0.55806395  0.94042252  0.44026669    -0.78700
C701        C  0.89910072  0.91313542  0.41295936     0.83900
C702        C  0.51459839  0.60218611  0.41322673     0.83500
O703        O  0.57588731  0.02507612  0.41404163    -0.77600
C704        C  0.61300688  0.51211388  0.57920288     0.84400
O705        O  0.94981463  0.92545447  0.41380453    -0.77700
C706        C  0.98875783  0.60133168  0.57928705     0.84500
C707        C  0.89949453  0.88792356  0.57912953     0.84800
O708        O  0.89650501  0.93163788  0.56864584    -0.80100
loop_ 
_geom_bond_atom_site_label_1 
_geom_bond_atom_site_label_2 
_geom_bond_distance 
_geom_bond_site_symmetry_2 
_ccdc_geom_bond_type 
C1            C6   1.411       .  A
C1          C179   1.413   1_545  A
C1           C57   1.499       .  S
C2          C178   1.413       .  A
C2          C357   1.411   1_455  A
C2            H7   1.084       .  S
C3            C4   1.413       .  A
C3          C356   1.411       .  A
C3           C32   1.499       .  S
C4          C182   1.411       .  A
C4            H8   1.084       .  S
C5          C181   1.411       .  A
C5          C360   1.413       .  A
C5          C107   1.499       .  S
C6          C359   1.413       .  A
C6            H9   1.084       .  S
C10          C11   1.405       .  A
C10          C15   1.406       .  A
C10          C41   1.482       .  S
C11          C12   1.406       .  A
C11          H16   1.084       .  S
C12          C13   1.405       .  A
C12         C125   1.481       .  S
C13          C14   1.406       .  A
C13          H17   1.084       .  S
C14          C15   1.405       .  A
C14         C116   1.481       .  S
C15          H18   1.084       .  S
C19          C20   1.419       .  A
C19          C24   1.419       .  A
C19          C50   1.518       .  S
C20          C21   1.419       .  A
C20          H25   1.084       .  S
C21          C22   1.419       .  A
C21          C75   1.518       .  S
C22          C23   1.419       .  A
C22          H26   1.084       .  S
C23          C24   1.419       .  A
C23          C66   1.518       .  S
C24          H27   1.084       .  S
C28          C29   1.397       .  A
C28          C33   1.416       .  A
C28         C102   1.471       .  S
C29          C30   1.398   1_554  A
C29          H34   1.084       .  S
C30          C31   1.417       .  A
C30         C133   1.462       .  S
C31          C32   1.405       .  A
C31          H35   1.084       .  S
C32          C33   1.401   1_556  A
C33          H36   1.084       .  S
C37          C38   1.407       .  A
C37          C42   1.414       .  A
C37         C150   1.469       .  S
C38          C39   1.407       .  A
C38          H43   1.083       .  S
C39          C40   1.414       .  A
C39         C176   1.469       .  S
C40          C41   1.392       .  A
C40          H44   1.085       .  S
C41          C42   1.392       .  A
C42          H45   1.085       .  S
C46          C47   1.390       .  A
C46          C51   1.422       .  A
C46          C98   1.469       .  S
C47          C48   1.390       .  A
C47          H52   1.085       .  S
C48          C49   1.421       .  A
C48         C170   1.467       .  S
C49          C50   1.414       .  A
C49          H53   1.084       .  S
C50          C51   1.414       .  A
C51          H54   1.084       .  S
C55          C56   1.416       .  A
C55         C237   1.397       .  A
C55         C100   1.470       .  S
C56         C234   1.401   1_554  A
C56          H61   1.084       .  S
C57          C58   1.405       .  A
C57         C233   1.401   1_546  A
C58          C59   1.417       .  A
C58          H62   1.084       .  S
C59          C60   1.398   1_556  A
C59         C147   1.462       .  S
C60         C232   1.397   1_545  A
C60          H63   1.084       .  S
C64          C69   1.390       .  A
C64         C419   1.421   1_455  A
C64         C171   1.468       .  S
C65          C66   1.414       .  A
C65         C418   1.421       .  A
C65          H70   1.084       .  S
C66         C421   1.414       .  A
C67          C68   1.422   1_655  A
C67         C420   1.414       .  A
C67          H71   1.084       .  S
C68          C69   1.390       .  A
C68          C97   1.469       .  S
C69          H72   1.085       .  S
C73          C78   1.390       .  A
C73         C251   1.421       .  A
C73         C156   1.468       .  S
C74          C75   1.414       .  A
C74         C250   1.421   1_545  A
C74          H79   1.084       .  S
C75         C253   1.414       .  A
C76          C77   1.422       .  A
C76         C252   1.414       .  A
C76          H80   1.084       .  S
C77          C78   1.390       .  A
C77          C83   1.469       .  S
C78          H81   1.085       .  S
O82          C98   1.258       .  A
O82         Zn88   1.904       .  S
C83          O99   1.258       .  A
C83          O96   1.294       .  A
O84          C97   1.294       .  A
O84         Cd91   2.176       .  S
O85         C103   1.297       .  A
O85         Cd94   2.156       .  S
O86         C100   1.297       .  A
O86         Cd90   2.156       .  S
O87          C98   1.294       .  A
O87         Cd90   2.176       .  S
Zn88         O99   1.904       .  S
Zn88        O101   1.903       .  S
Zn88         O93   1.738       .  S
O89         C100   1.269       .  A
O89         Cd94   1.970       .  S
Cd90         O92   1.970       .  S
Cd90         O93   1.881       .  S
Cd91         O95   2.156       .  S
Cd91        O104   1.970       .  S
Cd91         O93   1.881       .  S
O92         C102   1.269       .  A
O93         Cd94   1.881       .  S
Cd94         O96   2.176       .  S
O95         C102   1.297       .  A
C97         O101   1.258       .  A
C103        C105   1.471       .  S
C103        O104   1.269       .  A
C105        C106   1.416       .  A
C105        C464   1.397   1_455  A
C106        C461   1.401   1_454  A
C106        H111   1.084       .  S
C107        C108   1.405       .  A
C107        C460   1.401   1_556  A
C108        C109   1.417       .  A
C108        H112   1.084       .  S
C109        C110   1.398   1_556  A
C109        C148   1.462       .  S
C110        C459   1.397       .  A
C110        H113   1.084       .  S
C114        C119   1.407       .  A
C114        C292   1.414   1_545  A
C114        C173   1.469       .  S
C115        C116   1.392       .  A
C115        C291   1.414       .  A
C115        H120   1.085       .  S
C116        C294   1.392       .  A
C117        C118   1.414   1_565  A
C117        C293   1.392       .  A
C117        H121   1.085       .  S
C118        C119   1.407       .  A
C118        C153   1.469       .  S
C119        H122   1.083       .  S
C123        C128   1.407       .  A
C123        C478   1.414       .  A
C123        C175   1.469       .  S
C124        C125   1.392       .  A
C124        C477   1.414   1_455  A
C124        H129   1.085       .  S
C125        C480   1.392       .  A
C126        C127   1.414       .  A
C126        C479   1.392       .  A
C126        H484   1.085       .  S
C127        C128   1.407       .  A
C127        C152   1.469       .  S
C128        H131   1.083       .  S
H130        C480   1.085       .  S
O132        C148   1.259       .  A
O132       Zn138   1.884       .  S
C133        O149   1.259       .  A
C133        O146   1.291       .  A
O134        C147   1.291       .  A
O134       Cd141   2.162       .  S
O135        C153   1.292       .  A
O135       Cd144   2.145       .  S
O136        C150   1.292       .  A
O136       Cd140   2.145       .  S
O137        C148   1.291       .  A
O137       Cd140   2.162       .  S
Zn138       O149   1.884       .  S
Zn138       O151   1.884       .  S
Zn138       O143   1.730       .  S
O139        C150   1.269       .  A
O139       Cd144   1.972       .  S
Cd140       O142   1.972       .  S
Cd140       O143   1.891       .  S
Cd141       O145   2.145       .  S
Cd141       O154   1.972       .  S
Cd141       O143   1.891       .  S
O142        C152   1.269       .  A
O143       Cd144   1.891       .  S
Cd144       O146   2.163       .  S
O145        C152   1.293       .  A
C147        O151   1.259       .  A
C153        O154   1.269       .  A
O155        C171   1.259   1_655  A
O155       Zn161   1.907   1_655  S
C156        O172   1.259       .  A
C156        O169   1.293       .  A
O157        C170   1.293       .  A
O157       Cd164   2.167       .  S
O158        C176   1.294       .  A
O158       Cd521   2.150       .  S
O159        C173   1.294       .  A
O159       Cd163   2.150       .  S
O160        C171   1.293       .  A
O160       Cd163   2.167       .  S
Zn161       O349   1.908       .  S
Zn161       O705   1.907   1_445  S
Zn161       O166   1.733       .  S
O162        C173   1.270   1_565  A
O162       Cd344   1.968       .  S
Cd163       O519   1.968       .  S
Cd163       O166   1.881       .  S
Cd164       O177   1.968       .  S
Cd164       O345   2.150       .  S
Cd164       O697   1.881       .  S
O165        C175   1.270       .  A
O165       Cd517   1.968       .  S
O166       Cd695   1.881   1_445  S
O166       Cd344   1.882   1_545  S
Cd167       O169   2.167       .  S
Cd167       O512   2.150   1_455  S
Cd167       O339   1.968       .  S
Cd167       O343   1.882       .  S
O168        C175   1.294       .  A
O168       Cd341   2.150   1_545  S
C170        O174   1.259       .  A
O172       Zn338   1.908       .  S
O174       Zn692   1.907       .  S
C176        O177   1.270       .  A
C178        C183   1.411       .  A
C178        C234   1.499       .  S
C179        C534   1.411   1_455  A
C179        H184   1.084       .  S
C180        C533   1.411       .  A
C180        C181   1.413   1_565  A
C180        C209   1.499       .  S
C181        H185   1.084       .  S
C182        C537   1.413       .  A
C182        C284   1.499       .  S
C183        C536   1.413       .  A
C183        H186   1.084       .  S
C187        C188   1.405       .  A
C187        C192   1.406       .  A
C187        C218   1.482       .  S
C188        C189   1.406       .  A
C188        H193   1.084       .  S
C189        C190   1.405       .  A
C189        C302   1.481       .  S
C190        C191   1.406       .  A
C190        H194   1.084       .  S
C191        C192   1.405       .  A
C191        C293   1.481       .  S
C192        H195   1.084       .  S
C196        C197   1.419       .  A
C196        C201   1.419       .  A
C196        C227   1.518       .  S
C197        C198   1.419       .  A
C197        H202   1.084       .  S
C198        C199   1.419       .  A
C198        C252   1.518       .  S
C199        C200   1.419       .  A
C199        H203   1.084       .  S
C200        C201   1.419       .  A
C200        C243   1.518       .  S
C201        H204   1.083       .  S
C205        C206   1.397       .  A
C205        C210   1.416       .  A
C205        C279   1.471       .  S
C206        C207   1.398   1_554  A
C206        H211   1.084       .  S
C207        C208   1.417       .  A
C207        C310   1.462       .  S
C208        C209   1.405       .  A
C208        H212   1.084       .  S
C209        C210   1.401   1_556  A
C210        H213   1.084       .  S
C214        C215   1.407       .  A
C214        C219   1.414       .  A
C214        C327   1.469       .  S
C215        C216   1.407       .  A
C215        H220   1.083       .  S
C216        C217   1.414       .  A
C216        C353   1.469       .  S
C217        C218   1.392       .  A
C217        H221   1.085       .  S
C218        C219   1.392       .  A
C219        H222   1.085       .  S
C223        C224   1.390       .  A
C223        C228   1.422       .  A
C223        C275   1.469       .  S
C224        C225   1.390       .  A
C224        H229   1.085       .  S
C225        C226   1.421       .  A
C225        C347   1.467       .  S
C226        C227   1.414       .  A
C226        H230   1.084       .  S
C227        C228   1.414       .  A
C228        H231   1.084       .  S
C232        C233   1.416       .  A
C232        C277   1.470       .  S
C233        H238   1.084       .  S
C234        C235   1.405       .  A
C235        C236   1.417       .  A
C235        H239   1.084       .  S
C236        C237   1.398   1_556  A
C236        C324   1.462       .  S
C237        H240   1.084       .  S
C241        C596   1.421   1_455  A
C241        C246   1.390       .  A
C241        C348   1.468       .  S
C242        C595   1.421       .  A
C242        C243   1.414       .  A
C242        H247   1.084       .  S
C243        C598   1.414       .  A
C244        C597   1.414       .  A
C244        C245   1.422   1_655  A
C244        H248   1.084       .  S
C245        C246   1.390       .  A
C245        C274   1.469       .  S
C246        H249   1.085       .  S
C250        C255   1.390       .  A
C250        C333   1.468       .  S
C251        C252   1.414       .  A
C251        H256   1.084       .  S
C253        C254   1.422   1_545  A
C253        H257   1.084       .  S
C254        C255   1.390       .  A
C254        C260   1.469       .  S
C255        H258   1.085       .  S
O259        C275   1.258       .  A
O259       Zn265   1.904       .  S
C260        O276   1.258       .  A
C260        O273   1.294       .  A
O261        C274   1.294       .  A
O261       Cd268   2.176       .  S
O262        C280   1.297       .  A
O262       Cd271   2.156       .  S
O263        C277   1.297       .  A
O263       Cd267   2.156       .  S
O264        C275   1.294       .  A
O264       Cd267   2.176       .  S
Zn265       O276   1.904       .  S
Zn265       O278   1.903       .  S
Zn265       O270   1.738       .  S
O266        C277   1.269       .  A
O266       Cd271   1.970       .  S
Cd267       O269   1.970       .  S
Cd267       O270   1.881       .  S
Cd268       O272   2.156       .  S
Cd268       O281   1.970       .  S
Cd268       O270   1.881       .  S
O269        C279   1.269       .  A
O270       Cd271   1.881       .  S
Cd271       O273   2.176       .  S
O272        C279   1.297       .  A
C274        O278   1.258       .  A
C280        C282   1.471       .  S
C280        O281   1.269       .  A
C282        C283   1.416       .  A
C282        C641   1.397   1_455  A
C283        C638   1.401   1_454  A
C283        H288   1.084       .  S
C284        C637   1.401   1_556  A
C284        C285   1.405       .  A
C285        C286   1.417       .  A
C285        H289   1.084       .  S
C286        C287   1.398   1_556  A
C286        C325   1.462       .  S
C287        C636   1.397       .  A
C287        H290   1.084       .  S
C291        C296   1.407       .  A
C291        C350   1.469       .  S
C292        C293   1.392       .  A
C292        H297   1.085       .  S
C294        C295   1.414       .  A
C294        H298   1.085       .  S
C295        C296   1.407       .  A
C295        C330   1.469       .  S
C296        H299   1.083       .  S
C300        C655   1.414       .  A
C300        C305   1.407       .  A
C300        C352   1.469       .  S
C301        C654   1.414   1_455  A
C301        C302   1.392       .  A
C301        H306   1.085       .  S
C302        C657   1.392       .  A
C303        C656   1.392       .  A
C303        C304   1.414       .  A
C303        H661   1.085       .  S
C304        C305   1.407       .  A
C304        C329   1.469       .  S
C305        H308   1.083       .  S
H307        C657   1.085       .  S
O309        C325   1.259       .  A
O309       Zn315   1.884       .  S
C310        O326   1.259       .  A
C310        O323   1.291       .  A
O311        C324   1.291       .  A
O311       Cd318   2.162       .  S
O312        C330   1.292       .  A
O312       Cd321   2.145       .  S
O313        C327   1.292       .  A
O313       Cd317   2.145       .  S
O314        C325   1.291       .  A
O314       Cd317   2.162       .  S
Zn315       O326   1.884       .  S
Zn315       O328   1.884       .  S
Zn315       O320   1.730       .  S
O316        C327   1.269       .  A
O316       Cd321   1.972       .  S
Cd317       O319   1.972       .  S
Cd317       O320   1.891       .  S
Cd318       O322   2.145       .  S
Cd318       O331   1.972       .  S
Cd318       O320   1.891       .  S
O319        C329   1.269       .  A
O320       Cd321   1.891       .  S
Cd321       O323   2.163       .  S
O322        C329   1.293       .  A
C324        O328   1.259       .  A
C330        O331   1.269       .  A
O332        C348   1.259   1_655  A
O332       Zn338   1.907   1_655  S
C333        O349   1.259   1_565  A
C333        O346   1.293       .  A
O334        C347   1.293       .  A
O334       Cd341   2.167       .  S
O335        C353   1.294       .  A
O335       Cd698   2.150       .  S
O336        C350   1.294       .  A
O336       Cd340   2.150       .  S
O337        C348   1.293       .  A
O337       Cd340   2.167       .  S
Zn338       O528   1.907   1_455  S
Zn338       O343   1.733       .  S
O339        C350   1.270       .  A
Cd340       O696   1.968       .  S
Cd340       O343   1.881       .  S
Cd341       O354   1.968       .  S
Cd341       O520   1.881   1_565  S
O342        C352   1.270       .  A
O342       Cd694   1.968       .  S
O343       Cd518   1.881   1_455  S
Cd344       O689   2.150   1_455  S
Cd344       O346   2.167       .  S
O345        C352   1.294       .  A
C347        O351   1.259       .  A
O351       Zn515   1.907   1_565  S
C353        O354   1.270       .  A
C355        C533   1.413   1_545  A
C355        C360   1.411       .  A
C355        C411   1.499       .  S
C356        C532   1.413       .  A
C356        H361   1.084       .  S
C357        C358   1.413       .  A
C357        C386   1.499       .  S
C358        C536   1.411   1_655  A
C358        H362   1.084       .  S
C359        C535   1.411   1_455  A
C359        C461   1.499   1_455  S
C360        H363   1.084       .  S
C364        C365   1.405       .  A
C364        C369   1.406       .  A
C364        C395   1.482       .  S
C365        C366   1.406       .  A
C365        H370   1.084       .  S
C366        C367   1.405       .  A
C366        C479   1.481       .  S
C367        C368   1.406       .  A
C367        H371   1.084       .  S
C368        C369   1.405       .  A
C368        C470   1.481       .  S
C369        H372   1.084       .  S
C373        C374   1.419       .  A
C373        C378   1.419       .  A
C373        C404   1.518       .  S
C374        C375   1.419       .  A
C374        H379   1.084       .  S
C375        C376   1.419       .  A
C375        C429   1.518       .  S
C376        C377   1.419       .  A
C376        H380   1.084       .  S
C377        C378   1.419       .  A
C377        C420   1.518       .  S
C378        H381   1.084       .  S
C382        C383   1.397       .  A
C382        C387   1.416       .  A
C382        C456   1.471       .  S
C383        C384   1.398   1_554  A
C383        H388   1.084       .  S
C384        C385   1.417       .  A
C384        C487   1.462       .  S
C385        C386   1.405       .  A
C385        H389   1.084       .  S
C386        C387   1.401   1_556  A
C387        H390   1.084       .  S
C391        C392   1.407       .  A
C391        C396   1.414       .  A
C391        C504   1.469       .  S
C392        C393   1.407       .  A
C392        H397   1.083       .  S
C393        C394   1.414       .  A
C393        C530   1.469       .  S
C394        C395   1.392       .  A
C394        H398   1.085       .  S
C395        C396   1.392       .  A
C396        H399   1.085       .  S
C400        C401   1.390       .  A
C400        C405   1.422       .  A
C400        C452   1.469       .  S
C401        C402   1.390       .  A
C401        H406   1.085       .  S
C402        C403   1.421       .  A
C402        C524   1.467       .  S
C403        C404   1.414       .  A
C403        H407   1.084       .  S
C404        C405   1.414       .  A
C405        H408   1.084       .  S
C409        C410   1.416       .  A
C409        C591   1.397       .  A
C409        C454   1.470       .  S
C410        C588   1.401   1_554  A
C410        H415   1.084       .  S
C411        C587   1.401   1_546  A
C411        C412   1.405       .  A
C412        C413   1.417       .  A
C412        H416   1.084       .  S
C413        C414   1.398   1_556  A
C413        C501   1.462       .  S
C414        C586   1.397   1_545  A
C414        H417   1.084       .  S
C418        C423   1.390       .  A
C418        C525   1.468       .  S
C419        C420   1.414       .  A
C419        H424   1.084       .  S
C421        C422   1.422       .  A
C421        H425   1.084       .  S
C422        C423   1.390       .  A
C422        C451   1.469       .  S
C423        H426   1.085       .  S
C427        C605   1.421       .  A
C427        C432   1.390       .  A
C427        C510   1.468       .  S
C428        C604   1.421   1_545  A
C428        C429   1.414       .  A
C428        H433   1.084       .  S
C429        C607   1.414       .  A
C430        C606   1.414       .  A
C430        C431   1.422       .  A
C430        H434   1.084       .  S
C431        C432   1.390       .  A
C431        C437   1.469       .  S
C432        H435   1.085       .  S
O436        C452   1.258       .  A
O436       Zn442   1.904       .  S
C437        O453   1.258       .  A
C437        O450   1.294       .  A
O438        C451   1.294       .  A
O438       Cd445   2.176       .  S
O439        C457   1.297       .  A
O439       Cd448   2.156       .  S
O440        C454   1.297       .  A
O440       Cd444   2.156       .  S
O441        C452   1.294       .  A
O441       Cd444   2.176       .  S
Zn442       O453   1.904       .  S
Zn442       O455   1.903       .  S
Zn442       O447   1.738       .  S
O443        C454   1.269       .  A
O443       Cd448   1.970       .  S
Cd444       O446   1.970       .  S
Cd444       O447   1.881       .  S
Cd445       O449   2.156       .  S
Cd445       O458   1.970       .  S
Cd445       O447   1.881       .  S
O446        C456   1.269       .  A
O447       Cd448   1.881       .  S
Cd448       O450   2.176       .  S
O449        C456   1.297       .  A
C451        O455   1.258       .  A
C457        C459   1.471       .  S
C457        O458   1.269       .  A
C459        C460   1.416       .  A
C460        H465   1.084       .  S
C461        C462   1.405       .  A
C462        C463   1.417       .  A
C462        H466   1.084       .  S
C463        C464   1.398   1_556  A
C463        C502   1.462       .  S
C464        H467   1.084       .  S
C468        C646   1.414   1_545  A
C468        C473   1.407       .  A
C468        C527   1.469       .  S
C469        C645   1.414       .  A
C469        C470   1.392       .  A
C469        H474   1.085       .  S
C470        C648   1.392       .  A
C471        C647   1.392       .  A
C471        C472   1.414   1_565  A
C471        H475   1.085       .  S
C472        C473   1.407       .  A
C472        C507   1.469       .  S
C473        H476   1.083       .  S
C477        C482   1.407       .  A
C477        C529   1.469       .  S
C478        C479   1.392       .  A
C478        H483   1.085       .  S
C480        C481   1.414   1_455  A
C481        C482   1.407       .  A
C481        C506   1.469       .  S
C482        H485   1.083       .  S
O486        C502   1.259       .  A
O486       Zn492   1.884       .  S
C487        O503   1.259       .  A
C487        O500   1.291       .  A
O488        C501   1.291       .  A
O488       Cd495   2.162       .  S
O489        C507   1.292       .  A
O489       Cd498   2.145       .  S
O490        C504   1.292       .  A
O490       Cd494   2.145       .  S
O491        C502   1.291       .  A
O491       Cd494   2.162       .  S
Zn492       O503   1.884       .  S
Zn492       O505   1.884       .  S
Zn492       O497   1.730       .  S
O493        C504   1.269       .  A
O493       Cd498   1.972       .  S
Cd494       O496   1.972       .  S
Cd494       O497   1.891       .  S
Cd495       O499   2.145       .  S
Cd495       O508   1.972       .  S
Cd495       O497   1.891       .  S
O496        C506   1.269       .  A
O497       Cd498   1.891       .  S
Cd498       O500   2.163       .  S
O499        C506   1.293       .  A
C501        O505   1.259       .  A
C507        O508   1.269       .  A
O509        C525   1.259       .  A
O509       Zn515   1.907       .  S
C510        O526   1.259       .  A
C510        O523   1.293       .  A
O511        C524   1.293       .  A
O511       Cd518   2.167       .  S
O512        C530   1.294       .  A
O513        C527   1.294       .  A
O513       Cd517   2.150       .  S
O514        C525   1.293       .  A
O514       Cd517   2.167       .  S
Zn515       O703   1.908       .  S
Zn515       O520   1.733       .  S
O516        C527   1.270   1_565  A
O516       Cd698   1.968       .  S
Cd517       O520   1.881       .  S
Cd518       O699   2.150       .  S
Cd518       O531   1.968       .  S
O519        C529   1.270   1_455  A
O520       Cd698   1.882   1_545  S
Cd521       O693   1.968       .  S
Cd521       O523   2.167       .  S
Cd521       O697   1.882       .  S
O522        C529   1.294       .  A
O522       Cd695   2.150   1_545  S
C524        O528   1.259       .  A
O526       Zn692   1.908       .  S
C530        O531   1.270       .  A
C532        C537   1.411       .  A
C532        C588   1.499       .  S
C533        H538   1.084       .  S
C534        C535   1.413   1_565  A
C534        C563   1.499       .  S
C535        H539   1.084       .  S
C536        C638   1.499   1_455  S
C537        H540   1.084       .  S
C541        C542   1.405       .  A
C541        C546   1.406       .  A
C541        C572   1.482       .  S
C542        C543   1.406       .  A
C542        H547   1.084       .  S
C543        C544   1.405       .  A
C543        C656   1.481       .  S
C544        C545   1.406       .  A
C544        H548   1.084       .  S
C545        C546   1.405       .  A
C545        C647   1.481       .  S
C546        H549   1.084       .  S
C550        C551   1.419       .  A
C550        C555   1.419       .  A
C550        C581   1.518       .  S
C551        C552   1.419       .  A
C551        H556   1.084       .  S
C552        C553   1.419       .  A
C552        C606   1.518       .  S
C553        C554   1.419       .  A
C553        H557   1.084       .  S
C554        C555   1.419       .  A
C554        C597   1.518       .  S
C555        H558   1.083       .  S
C559        C560   1.397       .  A
C559        C564   1.416       .  A
C559        C633   1.471       .  S
C560        C561   1.398   1_554  A
C560        H565   1.084       .  S
C561        C562   1.417       .  A
C561        C664   1.462       .  S
C562        C563   1.405       .  A
C562        H566   1.084       .  S
C563        C564   1.401   1_556  A
C564        H567   1.084       .  S
C568        C569   1.407       .  A
C568        C573   1.414       .  A
C568        C681   1.469       .  S
C569        C570   1.407       .  A
C569        H574   1.083       .  S
C570        C571   1.414       .  A
C570        C707   1.469       .  S
C571        C572   1.392       .  A
C571        H575   1.085       .  S
C572        C573   1.392       .  A
C573        H576   1.085       .  S
C577        C578   1.390       .  A
C577        C582   1.422       .  A
C577        C629   1.469       .  S
C578        C579   1.390       .  A
C578        H583   1.085       .  S
C579        C580   1.421       .  A
C579        C701   1.467       .  S
C580        C581   1.414       .  A
C580        H584   1.084       .  S
C581        C582   1.414       .  A
C582        H585   1.084       .  S
C586        C587   1.416       .  A
C586        C631   1.470       .  S
C587        H592   1.084       .  S
C588        C589   1.405       .  A
C589        C590   1.417       .  A
C589        H593   1.084       .  S
C590        C591   1.398   1_556  A
C590        C678   1.462       .  S
C591        H594   1.084       .  S
C595        C600   1.390       .  A
C595        C702   1.468       .  S
C596        C597   1.414       .  A
C596        H601   1.084       .  S
C598        C599   1.422       .  A
C598        H602   1.084       .  S
C599        C600   1.390       .  A
C599        C628   1.469       .  S
C600        H603   1.085       .  S
C604        C609   1.390       .  A
C604        C687   1.468       .  S
C605        C606   1.414       .  A
C605        H610   1.084       .  S
C607        C608   1.422   1_545  A
C607        H611   1.084       .  S
C608        C609   1.390       .  A
C608        C614   1.469       .  S
C609        H612   1.085       .  S
O613        C629   1.258       .  A
O613       Zn619   1.904       .  S
C614        O630   1.258       .  A
C614        O627   1.294       .  A
O615        C628   1.294       .  A
O615       Cd622   2.176       .  S
O616        C634   1.297       .  A
O616       Cd625   2.156       .  S
O617        C631   1.297       .  A
O617       Cd621   2.156       .  S
O618        C629   1.294       .  A
O618       Cd621   2.176       .  S
Zn619       O630   1.904       .  S
Zn619       O632   1.903       .  S
Zn619       O624   1.738       .  S
O620        C631   1.269       .  A
O620       Cd625   1.970       .  S
Cd621       O623   1.970       .  S
Cd621       O624   1.881       .  S
Cd622       O626   2.156       .  S
Cd622       O635   1.970       .  S
Cd622       O624   1.881       .  S
O623        C633   1.269       .  A
O624       Cd625   1.881       .  S
Cd625       O627   2.176       .  S
O626        C633   1.297       .  A
C628        O632   1.258       .  A
C634        C636   1.471       .  S
C634        O635   1.269       .  A
C636        C637   1.416       .  A
C637        H642   1.084       .  S
C638        C639   1.405       .  A
C639        C640   1.417       .  A
C639        H643   1.084       .  S
C640        C641   1.398   1_556  A
C640        C679   1.462       .  S
C641        H644   1.084       .  S
C645        C650   1.407       .  A
C645        C704   1.469       .  S
C646        C647   1.392       .  A
C646        H651   1.085       .  S
C648        C649   1.414       .  A
C648        H652   1.085       .  S
C649        C650   1.407       .  A
C649        C684   1.469       .  S
C650        H653   1.083       .  S
C654        C659   1.407       .  A
C654        C706   1.469       .  S
C655        C656   1.392       .  A
C655        H660   1.085       .  S
C657        C658   1.414   1_455  A
C658        C659   1.407       .  A
C658        C683   1.469       .  S
C659        H662   1.083       .  S
O663        C679   1.259       .  A
O663       Zn669   1.884       .  S
C664        O680   1.259       .  A
C664        O677   1.291       .  A
O665        C678   1.291       .  A
O665       Cd672   2.162       .  S
O666        C684   1.292       .  A
O666       Cd675   2.145       .  S
O667        C681   1.292       .  A
O667       Cd671   2.145       .  S
O668        C679   1.291       .  A
O668       Cd671   2.162       .  S
Zn669       O680   1.884       .  S
Zn669       O682   1.884       .  S
Zn669       O674   1.730       .  S
O670        C681   1.269       .  A
O670       Cd675   1.972       .  S
Cd671       O673   1.972       .  S
Cd671       O674   1.891       .  S
Cd672       O676   2.145       .  S
Cd672       O685   1.972       .  S
Cd672       O674   1.891       .  S
O673        C683   1.269       .  A
O674       Cd675   1.891       .  S
Cd675       O677   2.163       .  S
O676        C683   1.293       .  A
C678        O682   1.259       .  A
C684        O685   1.269       .  A
O686        C702   1.259       .  A
O686       Zn692   1.907       .  S
C687        O703   1.259   1_565  A
C687        O700   1.293       .  A
O688        C701   1.293       .  A
O688       Cd695   2.167       .  S
O689        C707   1.294       .  A
O690        C704   1.294       .  A
O690       Cd694   2.150       .  S
O691        C702   1.293       .  A
O691       Cd694   2.167       .  S
Zn692       O697   1.733       .  S
O693        C704   1.270       .  A
Cd694       O697   1.881       .  S
Cd695       O708   1.968       .  S
O696        C706   1.270   1_455  A
Cd698       O700   2.167       .  S
O699        C706   1.294       .  A
C701        O705   1.259       .  A
C707        O708   1.270       .  A
