geometry optimzed in LAMMPS
_audit_creation_date              2020-12-01 
_audit_creation_method            'lammps2cif' 
_symmetry_space_group_name_H-M    'P1' 
_symmetry_Int_Tables_number       1 
_symmetry_cell_setting            triclinic 
loop_ 
_symmetry_equiv_pos_as_xyz 
  x,y,z 
_cell_length_a                    29.46123647 
_cell_length_b                    29.26916479189045 
_cell_length_c                    30.210125905215687 
_cell_angle_alpha                 88.399397840734 
_cell_angle_beta                  88.27111385054226 
_cell_angle_gamma                 89.88151677091741 
loop_ 
_atom_site_label 
_atom_site_type_symbol 
_atom_site_fract_x 
_atom_site_fract_y 
_atom_site_fract_z 
_atom_site_charge 
C1          C  0.19053300  0.80954840  0.54012889     0.81900
N2          N  0.20797270  0.78839180  0.50441144    -0.76400
C3          C  0.19596498  0.80069921  0.46308203     0.84400
N4          N  0.16523539  0.83571007  0.45713297    -0.76300
C5          C  0.14742528  0.85820965  0.49327974     0.84500
N6          N  0.16033082  0.84453372  0.53476882    -0.78000
C7          C  0.85128046  0.14294631  0.54602106     0.81900
N8          N  0.88442391  0.10992627  0.54433792    -0.76400
C9          C  0.90025557  0.09465754  0.50395581     0.84400
N10         N  0.88270043  0.11353369  0.46595463    -0.76300
C11         C  0.84980271  0.14655346  0.46870427     0.84500
N12         N  0.83481841  0.16049133  0.50836201    -0.78000
C13         C  0.86407652  0.79643078  0.54328692     0.81900
N14         N  0.85311209  0.77546305  0.50627737    -0.76400
C15         C  0.86849338  0.79032488  0.46631267     0.84400
N16         N  0.89620398  0.82792430  0.46262936    -0.76300
C17         C  0.90773254  0.85059719  0.49999881     0.84500
N18         N  0.89172405  0.83413196  0.54067815    -0.78000
C19         C  0.60515404  0.77521269  0.15116857     0.81900
N20         N  0.60258200  0.81396440  0.12485847    -0.76400
C21         C  0.56115172  0.83218255  0.11455867     0.84400
N22         N  0.52256270  0.81038154  0.13081519    -0.76300
C23         C  0.52570639  0.77161255  0.15721394     0.84500
N24         N  0.56686819  0.75476955  0.16699456    -0.78000
C25         C  0.89294066  0.50229663  0.14328419     0.81900
N26         N  0.93198355  0.50033524  0.11765583    -0.76400
C27         C  0.94722893  0.45921063  0.10224393     0.84400
N28         N  0.92217313  0.42060592  0.11241325    -0.76300
C29         C  0.88312370  0.42327609  0.13796120     0.84500
N30         N  0.86922848  0.46390617  0.15303904    -0.78000
C31         C  0.91771724  0.52273704  0.81366406     0.81900
N32         N  0.94807245  0.51543892  0.84606944    -0.76400
C33         C  0.94752832  0.47538273  0.87021201     0.84400
N34         N  0.91587265  0.44278739  0.86145796    -0.76300
C35         C  0.88510592  0.45117563  0.82908719     0.84500
N36         N  0.88655124  0.49085193  0.80560183    -0.78000
C37         C  0.60252212  0.12130216  0.83040372     0.81900
N38         N  0.56737190  0.13768280  0.80740977    -0.76400
C39         C  0.52461411  0.12393517  0.81737761     0.84400
N40         N  0.51664541  0.09259395  0.85146654    -0.76300
C41         C  0.55240420  0.07577392  0.87533376     0.84500
N42         N  0.59531232  0.09031944  0.86425361    -0.78000
C43         C  0.21876696  0.51238607  0.79667517     0.81900
N44         N  0.19562484  0.51146522  0.83670271    -0.76400
C45         C  0.18386000  0.47040943  0.85687365     0.84400
N46         N  0.19521146  0.43089646  0.83588118    -0.76300
C47         C  0.21811583  0.43277556  0.79583409     0.84500
N48         N  0.22968955  0.47323273  0.77697264    -0.78000
C49         C  0.58787711  0.76720469  0.85170859     0.81900
N50         N  0.58805805  0.80075842  0.88231045    -0.76400
C51         C  0.55505084  0.83399002  0.88205315     0.84400
N52         N  0.52302009  0.83347737  0.85004282    -0.76300
C53         C  0.52430733  0.80025985  0.81917098     0.84500
N54         N  0.55634153  0.76769781  0.82061971    -0.78000
C55         C  0.02602576  0.31133900  0.36525561     0.81900
N56         N  0.02815633  0.34899660  0.39094960    -0.76400
C57         C  0.06929950  0.36843451  0.39910880     0.84400
N58         N  0.10812208  0.34890592  0.38136331    -0.76300
C59         C  0.10533031  0.31126046  0.35536163     0.84500
N60         N  0.06440885  0.29325704  0.34780940    -0.78000
O61         O  0.30408912  0.34770839  0.26090969    -0.79200
O62         O  0.27826560  0.13517920  0.29803862    -0.63900
O63         O  0.32654697  0.25419286  0.28136251    -1.10500
C64         C  0.34427140  0.22474350  0.13378061     1.07700
O65         O  0.32043340  0.10019191  0.24775580    -0.77100
O66         O  0.38281092  0.15759129  0.22696734    -0.64700
Ni67       Ni  0.29464610  0.30371680  0.31021826     1.34900
C68         C  0.40626996  0.19105666  0.21376601     0.86400
O69         O  0.30453470  0.19663683  0.35262459    -0.77600
O70         O  0.27466694  0.26525604  0.36280041    -0.87900
C71         C  0.30613829  0.10425494  0.28774295     0.86000
O72         O  0.24157186  0.28999293  0.28061661    -0.66100
O73         O  0.34863661  0.18240095  0.14536780    -0.85400
C74         C  0.21794033  0.25668674  0.29390894     0.86800
C75         C  0.27921160  0.22298422  0.37454700     1.08400
H76         H  0.26660186  0.19452785  0.21802488     0.40200
O77         O  0.29769280  0.19360920  0.22719679    -1.08100
O78         O  0.38883297  0.23131777  0.21088294    -0.64700
Ni79       Ni  0.32443911  0.25262723  0.21804063     1.26300
O80         O  0.23531741  0.21644041  0.29726598    -0.64900
O81         O  0.31937946  0.25125158  0.15596486    -0.77200
C82         C  0.31833720  0.34363317  0.22091193     0.86200
O83         O  0.34602642  0.31258607  0.21051896    -0.64400
Ni84       Ni  0.32924574  0.14400700  0.19817524     1.27400
Ni85       Ni  0.29975424  0.19516720  0.29050056     1.26100
H86         H  0.35762805  0.25335287  0.29056809     0.40800
C87         C  0.38668944  0.94000927  0.36886779     0.81900
N88         N  0.36581306  0.97809491  0.35453305    -0.76400
C89         C  0.37659733  0.01933983  0.36923229     0.84400
N90         N  0.41006732  0.02304908  0.39974495    -0.76300
C91         C  0.43202729  0.98430729  0.41522737     0.84500
N92         N  0.42011220  0.94267252  0.39917303    -0.78000
O93         O  0.36090736  0.83819201  0.25520752    -0.79200
O94         O  0.31855153  0.63240193  0.20543705    -0.63900
O95         O  0.31214627  0.76034425  0.22770254    -1.10500
C96         C  0.26589858  0.72367007  0.37094081     1.07700
O97         O  0.26278454  0.60995252  0.25224999    -0.77100
O98         O  0.22442158  0.68755344  0.26607420    -0.64700
Ni99       Ni  0.36262964  0.79758755  0.20582846     1.34900
C100        C  0.21015642  0.72316755  0.28342024     0.86400
O101        O  0.32323565  0.70541275  0.15420815    -0.77600
O102        O  0.37495170  0.76047527  0.15284079    -0.87900
C103        C  0.28498142  0.60697784  0.21570075     0.86000
O104        O  0.39905022  0.76043012  0.24202424    -0.66100
O105        O  0.24910803  0.68745962  0.35506571    -0.85400
C106        C  0.41352261  0.72486124  0.22476268     0.86800
C107        C  0.35830963  0.72426927  0.13690253     1.08400
H108        H  0.33949616  0.67595793  0.29204537     0.40200
O109        O  0.31164706  0.68756637  0.27999391    -1.08100
O110        O  0.23818565  0.75523437  0.29092640    -0.64700
Ni111      Ni  0.30589163  0.75202680  0.29111142     1.26300
O112        O  0.38567880  0.69269992  0.21715135    -0.64900
O113        O  0.30100973  0.74235297  0.35352664    -0.77200
C114        C  0.33898701  0.84101583  0.29189507     0.86200
O115        O  0.30559589  0.81544251  0.30241780    -0.64400
Ni116      Ni  0.26118501  0.65037082  0.30189569     1.27400
Ni117      Ni  0.31805346  0.69583585  0.21662908     1.26100
H118        H  0.28426564  0.77190374  0.21568183     0.40800
O119        O  0.69320327  0.19026072  0.24240180    -0.79200
O120        O  0.88880124  0.22886289  0.32055250    -0.63900
O121        O  0.77208305  0.23495662  0.26869746    -1.10500
C122        C  0.84001287  0.23070253  0.13412126     1.07700
O123        O  0.93101997  0.25774408  0.26392219    -0.77100
O124        O  0.86490904  0.30165069  0.22394291    -0.64700
Ni125      Ni  0.72448595  0.19844314  0.29675462     1.34900
C126        C  0.83161635  0.31222964  0.20061311     0.86400
O127        O  0.80642438  0.24755652  0.35009040    -0.77600
O128        O  0.74970700  0.19867977  0.35613152    -0.87900
C129        C  0.92368683  0.24976183  0.30510537     0.86000
O130        O  0.75892839  0.14624029  0.28262708    -0.66100
O131        O  0.87443989  0.24976230  0.15015157    -0.85400
C132        C  0.79193431  0.13557355  0.30627227     0.86800
C133        C  0.78432879  0.21750993  0.37203105     1.08400
H134        H  0.86201055  0.18099945  0.23779716     0.40200
O135        O  0.85238593  0.21263779  0.23739703    -1.08100
O136        O  0.80002109  0.28345908  0.19348868    -0.64700
Ni137      Ni  0.79395128  0.21782440  0.21136973     1.26300
O138        O  0.82396107  0.16404928  0.31293080    -0.64900
O139        O  0.81819543  0.20030886  0.15590386    -0.77200
C140        C  0.70067354  0.19769550  0.20116440     0.86200
O141        O  0.73566724  0.21827444  0.18552222    -0.64400
Ni142      Ni  0.89969752  0.24972545  0.20951622     1.27400
Ni143      Ni  0.83050931  0.22965189  0.29472817     1.26100
H144        H  0.76264148  0.26664678  0.26826082     0.40800
C145        C  0.73129454  0.94599699  0.36531020     0.81900
N146        N  0.69220055  0.94740397  0.39088845    -0.76400
C147        C  0.67627954  0.98829024  0.40624811     0.84400
N148        N  0.70072907  0.02730700  0.39601642    -0.76300
C149        C  0.73985508  0.02520885  0.37045390     0.84500
N150        N  0.75441185  0.98474107  0.35550101    -0.78000
O151        O  0.84236473  0.60243413  0.25320954    -0.79200
O152        O  0.80694167  0.80717799  0.31391094    -0.63900
O153        O  0.79929621  0.68540568  0.27373123    -1.10500
C154        C  0.80690914  0.73900510  0.13381767     1.07700
O155        O  0.78022200  0.84532144  0.25506086    -0.77100
O156        O  0.73471271  0.77639762  0.22366712    -0.64700
Ni157      Ni  0.83444629  0.63992787  0.30481894     1.34900
C158        C  0.72372798  0.73995014  0.20564320     0.86400
O159        O  0.78550427  0.72805457  0.35128625    -0.77600
O160        O  0.83466797  0.67240825  0.36123635    -0.87900
C161        C  0.78731584  0.84139183  0.29641646     0.86000
O162        O  0.88779556  0.67057825  0.28557778    -0.66100
O163        O  0.78686126  0.77500852  0.14719546    -0.85400
C164        C  0.89878814  0.70720438  0.30326164     0.86800
C165        C  0.81494385  0.70869252  0.37434517     1.08400
H166        H  0.85485193  0.77149393  0.23256385     0.40200
O167        O  0.82329816  0.76239596  0.23434866    -1.08100
O168        O  0.75238627  0.70744644  0.19923027    -0.64700
Ni169      Ni  0.81751295  0.70145248  0.21435541     1.26300
O170        O  0.87021903  0.73993627  0.30916125    -0.64900
O171        O  0.83668017  0.71983557  0.15665732    -0.77200
C172        C  0.83586601  0.60654788  0.21175475     0.86200
O173        O  0.81599851  0.64058315  0.19419682    -0.64400
Ni174      Ni  0.78751832  0.80759206  0.20354238     1.27400
Ni175      Ni  0.80512566  0.74631755  0.29373094     1.26100
H176        H  0.76769090  0.67647714  0.27546523     0.40800
C177        C  0.01812997  0.67243783  0.35686173     0.81900
N178        N  0.05632213  0.69313541  0.34102778    -0.76400
C179        C  0.09762187  0.67650202  0.35074479     0.84400
N180        N  0.10096478  0.63769124  0.37708332    -0.76300
C181        C  0.06250700  0.61560910  0.39331505     0.84500
N182        N  0.02096799  0.63363523  0.38308897    -0.78000
C183        C  0.43588017  0.30120445  0.96382145     0.81900
N184        N  0.46789727  0.33441216  0.96854361    -0.76400
C185        C  0.48017241  0.34692123  0.01002188     0.84400
N186        N  0.45915376  0.32568010  0.04654339    -0.76300
C187        C  0.42701449  0.29233480  0.04102464     0.84500
N188        N  0.41611470  0.28096029  0.99990716    -0.78000
O189        O  0.32365958  0.27293931  0.86388035    -0.79200
O190        O  0.24769636  0.21982479  0.67451581    -0.63900
O191        O  0.29109062  0.22217097  0.79286048    -1.10500
C192        C  0.43207290  0.18974062  0.73924167     1.07700
O193        O  0.30013552  0.17464978  0.64383610    -0.77100
O194        O  0.32309540  0.13840445  0.72090031    -0.64700
Ni195      Ni  0.26959672  0.27116064  0.82921358     1.34900
C196        C  0.34458446  0.12721052  0.75470836     0.86400
O197        O  0.20821946  0.22151711  0.75302525    -0.77600
O198        O  0.21144231  0.27858939  0.79922751    -0.87900
C199        C  0.26039434  0.19171508  0.64551235     0.86000
O200        O  0.30042018  0.30911165  0.78685634    -0.66100
O201        O  0.41223380  0.16867492  0.70886098    -0.85400
C202        C  0.27873471  0.32025261  0.75315350     0.86800
C203        C  0.19168746  0.25766998  0.76871861     1.08400
H204        H  0.34019248  0.25430456  0.70034581     0.40200
O205        O  0.33268227  0.22534054  0.71493892    -1.08100
O206        O  0.35740152  0.15727873  0.78147942    -0.64700
Ni207      Ni  0.35397601  0.22435989  0.77475007     1.26300
O208        O  0.26623221  0.29018425  0.72626049    -0.64900
O209        O  0.41555731  0.22596735  0.75477976    -0.77200
C210        C  0.36338193  0.25586715  0.86225536     0.86200
O211        O  0.37609191  0.22769629  0.83330047    -0.64400
Ni212      Ni  0.35415276  0.17628316  0.67866295     1.27400
Ni213      Ni  0.26979606  0.22314057  0.73304585     1.26100
H214        H  0.28358349  0.19319806  0.80743338     0.40800
C215        C  0.40771061  0.93456833  0.71362912     0.81900
N216        N  0.39548186  0.97368885  0.73272963    -0.76400
C217        C  0.40541236  0.01419101  0.71307120     0.84400
N218        N  0.42795742  0.01612995  0.67284107    -0.76300
C219        C  0.44063983  0.97664659  0.65247548     0.84500
N220        N  0.43049717  0.93556299  0.67341935    -0.78000
O221        O  0.29597442  0.78237779  0.64663059    -0.79200
O222        O  0.37896794  0.71390607  0.83148388    -0.63900
O223        O  0.33155579  0.72602503  0.71469540    -1.10500
C224        C  0.19288988  0.68718817  0.77307092     1.07700
O225        O  0.32691346  0.66777540  0.86374417    -0.77100
O226        O  0.30357907  0.63623478  0.78608406    -0.64700
Ni227      Ni  0.35081966  0.77863979  0.67935937     1.34900
C228        C  0.28072786  0.62696618  0.75314547     0.86400
O229        O  0.41553307  0.72246919  0.75133317    -0.77600
O230        O  0.40991535  0.78345266  0.70666229    -0.87900
C231        C  0.36614845  0.68551209  0.86172830     0.86000
O232        O  0.32147938  0.81252622  0.72422332    -0.66100
O233        O  0.21439015  0.66390240  0.80176865    -0.85400
C234        C  0.34505535  0.82075776  0.75695306     0.86800
C235        C  0.43135209  0.75954756  0.73499091     1.08400
H236        H  0.28493338  0.75007852  0.80903231     0.40200
O237        O  0.29237475  0.72226509  0.79379800    -1.08100
O238        O  0.26693020  0.65872642  0.72692327    -0.64700
Ni239      Ni  0.26926134  0.72542691  0.73457684     1.26300
O240        O  0.35843400  0.78831730  0.78248091    -0.64900
O241        O  0.20835073  0.72431550  0.75653708    -0.77200
C242        C  0.25752865  0.76295210  0.64730002     0.86200
O243        O  0.24560611  0.73276117  0.67632605    -0.64400
Ni244      Ni  0.27282451  0.67025801  0.82993337     1.27400
Ni245      Ni  0.35478587  0.72200913  0.77371846     1.26100
H246        H  0.33919072  0.69854358  0.69899971     0.40800
C247        C  0.03679823  0.67939592  0.65666889     0.81900
N248        N  0.03661456  0.64608686  0.62583426    -0.76400
C249        C  0.06956963  0.61281466  0.62591357     0.84400
N250        N  0.10153728  0.61302344  0.65799064    -0.76300
C251        C  0.10019265  0.64594111  0.68914502     0.84500
N252        N  0.06822527  0.67857526  0.68786304    -0.78000
C253        C  0.02182847  0.32574161  0.67684109     0.81900
N254        N  0.02909837  0.35649385  0.64281182    -0.76400
C255        C  0.07198326  0.37123887  0.63193546     0.84400
N256        N  0.10765404  0.35486102  0.65618731    -0.76300
C257        C  0.09961229  0.32371487  0.69042288     0.84500
N258        N  0.05688562  0.30977997  0.70020165    -0.78000
O259        O  0.81533425  0.18793499  0.86226304    -0.79200
O260        O  0.76285796  0.20480663  0.67003184    -0.63900
O261        O  0.83294336  0.19014631  0.77039343    -1.10500
C262        C  0.81523642  0.35056787  0.77622969     1.07700
O263        O  0.80765673  0.25972947  0.64392509    -0.77100
O264        O  0.86559166  0.30474295  0.69125078    -0.64700
Ni265      Ni  0.82276701  0.14369333  0.81502574     1.34900
C266        C  0.89463549  0.28837751  0.71710440     0.86400
O267        O  0.79943001  0.13316031  0.70824975    -0.77600
O268        O  0.82432571  0.09683443  0.76998078    -0.87900
C269        C  0.79037119  0.22007125  0.64053208     0.86000
O270        O  0.75893459  0.14146226  0.81437919    -0.66100
O271        O  0.80174903  0.35137343  0.73602183    -0.85400
C272        C  0.72952927  0.15894455  0.78956873     0.86800
C273        C  0.80908950  0.09737855  0.73043771     1.08400
H274        H  0.76055177  0.26378333  0.74733493     0.40200
O275        O  0.79092289  0.25810215  0.73589059    -1.08100
O276        O  0.88493488  0.26598775  0.75302363    -0.64700
Ni277      Ni  0.82810425  0.25272407  0.78504069     1.26300
O278        O  0.73878297  0.18279575  0.75442407    -0.64900
O279        O  0.82313686  0.31466101  0.79889698    -0.77200
C280        C  0.83229036  0.22766376  0.86603591     0.86200
O281        O  0.86003335  0.24319625  0.83689500    -0.64400
Ni282      Ni  0.80174497  0.30425244  0.69111184     1.27400
Ni283      Ni  0.79526855  0.19537517  0.72160673     1.26100
H284        H  0.86328023  0.18481724  0.75867501     0.40800
C285        C  0.70636934  0.92436636  0.69442516     0.81900
N286        N  0.67574217  0.93188128  0.66225861    -0.76400
C287        C  0.67614097  0.97210219  0.63834869     0.84400
N288        N  0.70783969  0.00462569  0.64707513    -0.76300
C289        C  0.73876152  0.99612795  0.67924919     0.84500
N290        N  0.73753045  0.95628833  0.70251276    -0.78000
O291        O  0.86314762  0.71879209  0.85518176    -0.79200
O292        O  0.82488929  0.68930753  0.66195830    -0.63900
O293        O  0.84536544  0.74702154  0.76807254    -1.10500
C294        C  0.69216950  0.70467163  0.79957089     1.07700
O295        O  0.76179409  0.72817922  0.65333786    -0.77100
O296        O  0.71663586  0.77043871  0.71675750    -0.64700
Ni297      Ni  0.89824574  0.73856448  0.80201462     1.34900
C298        C  0.73412295  0.79905884  0.74157880     0.86400
O299        O  0.89597482  0.73077508  0.69176337    -0.77600
O300        O  0.93689334  0.75253882  0.74972488    -0.87900
C301        C  0.80207949  0.71817283  0.64028086     0.86000
O302        O  0.90794120  0.67619537  0.79182188    -0.66100
O303        O  0.68822042  0.69383994  0.75883705    -0.85400
C304        C  0.89066391  0.64783495  0.76659945     0.86800
C305        C  0.93280595  0.74215446  0.70889476     1.08400
H306        H  0.77998596  0.66775581  0.74860739     0.40200
O307        O  0.77966738  0.69994940  0.74043175    -1.08100
O308        O  0.76326759  0.78921248  0.77080159    -0.64700
Ni309      Ni  0.78708506  0.73138283  0.79286888     1.26300
O310        O  0.86176663  0.65790761  0.73725822    -0.64900
O311        O  0.72889793  0.71652790  0.81660390    -0.77200
C312        C  0.82286019  0.72882951  0.86816649     0.86200
O313        O  0.80008835  0.75776743  0.84649043    -0.64400
Ni314      Ni  0.72675992  0.70812880  0.70651418     1.27400
Ni315      Ni  0.83786845  0.71572975  0.71555399     1.26100
H316        H  0.84515686  0.77923521  0.75997992     0.40800
C317        C  0.43414192  0.63905041  0.96790847     0.81900
N318        N  0.46377606  0.60361124  0.97326685    -0.76400
C319        C  0.47644194  0.58978156  0.01476560     0.84400
N320        N  0.45893975  0.61248982  0.05088275    -0.76300
C321        C  0.42876798  0.64793926  0.04487519     0.84500
N322        N  0.41701816  0.66047961  0.00356229    -0.78000
C323        C  0.77118344  0.30447379  0.96059060     0.81900
N324        N  0.78813398  0.28721255  0.99814551    -0.76400
C325        C  0.77355580  0.30134003  0.03786538     0.84400
N326        N  0.74057283  0.33425578  0.04077639    -0.76300
C327        C  0.72252294  0.35281179  0.00287104     0.84500
N328        N  0.73796893  0.33739102  0.96243329    -0.78000
C329        C  0.76063460  0.65023655  0.96470543     0.81900
N330        N  0.77103118  0.67136963  0.00179788    -0.76400
C331        C  0.75470436  0.65693588  0.04156518     0.84400
N332        N  0.72668444  0.61958262  0.04495714    -0.76300
C333        C  0.71584122  0.59668840  0.00752402     0.84500
N334        N  0.73270298  0.61275646  0.96702967    -0.78000
C335        C  0.59796191  0.13584404  0.14199715     0.81900
N336        N  0.59554036  0.09827025  0.11625338    -0.76400
C337        C  0.55427090  0.07912574  0.10812807     0.84400
N338        N  0.51558911  0.09886161  0.12595474    -0.76300
C339        C  0.51866741  0.13642826  0.15203382     0.84500
N340        N  0.55973025  0.15413416  0.15956346    -0.78000
C341        C  0.23770804  0.50770328  0.13881253     0.81900
N342        N  0.25893527  0.46983226  0.15318477    -0.76400
C343        C  0.24787925  0.42836106  0.13922713     0.84400
N344        N  0.21385038  0.42418206  0.10939283    -0.76300
C345        C  0.19156144  0.46267056  0.09382979     0.84500
N346        N  0.20369976  0.50456186  0.10916792    -0.78000
C347        C  0.18711267  0.14683662  0.54422876     0.81900
N348        N  0.15502734  0.11366378  0.53960485    -0.76400
C349        C  0.14264959  0.10112512  0.49816079     0.84400
N350        N  0.16370396  0.12224508  0.46158341    -0.76300
C351        C  0.19589995  0.15556408  0.46700562     0.84500
N352        N  0.20685045  0.16699741  0.50808850    -0.78000
N353        N  0.02592804  0.90523951  0.49004252    -0.34900
N354        N  0.95254833  0.97431779  0.49885286    -0.55500
N355        N  0.02254060  0.04836020  0.49599409    -0.34900
N356        N  0.09579919  0.97891539  0.49064499    -0.55500
C357        C  0.98932782  0.87713856  0.49695012     0.28700
C358        C  0.06433874  0.87939816  0.49322895     0.28700
C359        C  0.98411137  0.07400156  0.50146138     0.28700
C360        C  0.05950641  0.07633131  0.49797452     0.28700
C361        C  0.92642889  0.93614110  0.49554578     0.37300
C362        C  0.92450949  0.01146037  0.49757263     0.37300
C363        C  0.12380096  0.94200334  0.48620033     0.37300
C364        C  0.12210841  0.01732575  0.48855157     0.37300
C365        C  0.00491389  0.83279832  0.50370799    -0.20200
C366        C  0.05168231  0.83420531  0.50143000    -0.20200
C367        C  0.99704696  0.11911070  0.50652524    -0.20200
C368        C  0.04402304  0.12054454  0.50441886    -0.20200
C369        C  0.88139211  0.94927864  0.49224756    -0.21200
C370        C  0.88016893  0.99648303  0.49350475    -0.21200
C371        C  0.16822213  0.95727932  0.48118577    -0.21200
C372        C  0.16717128  0.00444427  0.48264394    -0.21200
C373        C  0.94213100  0.88951841  0.49691433    -0.16600
C374        C  0.11067158  0.89459850  0.48891136    -0.16600
C375        C  0.10684013  0.06376577  0.49366812    -0.16600
C376        C  0.93760656  0.05863666  0.50111405    -0.16600
H377        H  0.98471812  0.80231373  0.50991634     0.16300
H378        H  0.07383670  0.80495197  0.50554295     0.16300
H379        H  0.97492843  0.14827668  0.51112246     0.16300
H380        H  0.06443246  0.15099290  0.50707691     0.16300
H381        H  0.85231690  0.92714467  0.48927359     0.14600
H382        H  0.84989463  0.01738715  0.49166070     0.14600
H383        H  0.19845259  0.93654029  0.47725846     0.14600
H384        H  0.19646966  0.02670462  0.47998534     0.14600
H385        H  0.02479492  0.93987626  0.48258614     0.27900
H386        H  0.02331836  0.01374646  0.49057577     0.27900
N387        N  0.54636246  0.95501594  0.92670280    -0.34900
N388        N  0.55682189  0.88395424  0.99763162    -0.59900
N389        N  0.55232352  0.95556681  0.06555194    -0.34900
N390        N  0.54751112  0.02702159  0.99390673    -0.55500
C391        C  0.55346104  0.91756218  0.90159000     0.28700
C392        C  0.54973444  0.99286350  0.89952223     0.28700
C393        C  0.55977825  0.91780949  0.09205133     0.28700
C394        C  0.55651505  0.99385652  0.09000929     0.28700
C395        C  0.55316634  0.85641931  0.96230434     0.37300
C396        C  0.55478827  0.85650479  0.03476763     0.37300
C397        C  0.54483486  0.05428423  0.95675922     0.37300
C398        C  0.54723558  0.05478398  0.02935473     0.37300
C399        C  0.56065883  0.93200759  0.85779295    -0.20200
C400        C  0.55817641  0.97902926  0.85648145    -0.20200
C401        C  0.56843259  0.93249632  0.13424276    -0.20200
C402        C  0.56642052  0.97994507  0.13297280    -0.20200
C403        C  0.54907111  0.81136500  0.97729573    -0.21200
C404        C  0.55032545  0.81138607  0.02266731    -0.21200
C405        C  0.54315546  0.09961483  0.96881031    -0.21200
C406        C  0.54456602  0.09995621  0.01431156    -0.21200
C407        C  0.55379316  0.87062695  0.91655401    -0.16600
C408        C  0.54631136  0.03970038  0.91183671    -0.16600
C409        C  0.55148933  0.04092967  0.07502956    -0.16600
C410        C  0.55811785  0.87052361  0.07959423    -0.16600
H411        H  0.56785422  0.91100679  0.82951670     0.16300
H412        H  0.56282213  0.00059221  0.82700589     0.16300
H413        H  0.57562474  0.91122908  0.16307403     0.16300
H414        H  0.57183586  0.00174145  0.16068052     0.16300
H415        H  0.54501149  0.78130981  0.95776989     0.14600
H416        H  0.54792849  0.78130016  0.04425414     0.14600
H417        H  0.54166908  0.12954046  0.94702477     0.14600
H418        H  0.54442920  0.13030660  0.03398072     0.14600
H419        H  0.53891252  0.95469580  0.96034386     0.27900
H420        H  0.54363643  0.95512289  0.03272110     0.27900
N421        N  0.06697081  0.46973001  0.91326946    -0.34900
N422        N  0.13994136  0.46342415  0.97846196    -0.55500
N423        N  0.06941117  0.45682445  0.05118050    -0.34900
N424        N  0.99688754  0.46041659  0.98491498    -0.55500
C425        C  0.10367472  0.46709097  0.88508249     0.28700
C426        C  0.02913389  0.46649394  0.88884285     0.28700
C427        C  0.10750951  0.45832209  0.07581698     0.28700
C428        C  0.03191694  0.45755357  0.07900025     0.28700
C429        C  0.16631467  0.46703800  0.94059922     0.37300
C430        C  0.16792565  0.46202344  0.01360224     0.37300
C431        C  0.96906000  0.46480879  0.94996122     0.37300
C432        C  0.97001930  0.45988113  0.02221759     0.37300
C433        C  0.08864293  0.46276679  0.84223736    -0.20200
C434        C  0.04207289  0.46231434  0.84464112    -0.20200
C435        C  0.09373159  0.45909312  0.12018715    -0.20200
C436        C  0.04661791  0.45859647  0.12214979    -0.20200
C437        C  0.21154525  0.46765621  0.95185572    -0.21200
C438        C  0.21258837  0.46454758  0.99761554    -0.21200
C439        C  0.92431950  0.46678414  0.96516067    -0.21200
C440        C  0.92484923  0.46348240  0.01053363    -0.21200
C441        C  0.15049029  0.46879956  0.89598172    -0.16600
C442        C  0.98296826  0.46767622  0.90441766    -0.16600
C443        C  0.98481813  0.45800127  0.06687751    -0.16600
C444        C  0.15434685  0.45967633  0.05990359    -0.16600
H445        H  0.10899853  0.45991369  0.81202209     0.16300
H446        H  0.02021759  0.45879264  0.81678155     0.16300
H447        H  0.11537900  0.46030078  0.14844715     0.16300
H448        H  0.02556858  0.45937247  0.15210739     0.16300
H449        H  0.24084214  0.47002083  0.92942048     0.14600
H450        H  0.24295774  0.46433357  0.01690875     0.14600
H451        H  0.89424720  0.47064412  0.94570332     0.14600
H452        H  0.89508792  0.46452543  0.03237573     0.14600
H453        H  0.06765569  0.47490007  0.94690873     0.27900
H454        H  0.06904587  0.45534407  0.01714538     0.27900
N455        N  0.59756914  0.54242683  0.01729398    -0.34900
N456        N  0.52741110  0.46892700  0.01736105    -0.55500
N457        N  0.60040264  0.39932173  0.01171182    -0.34900
N458        N  0.67060003  0.47320038  0.00820628    -0.55500
C459        C  0.55924839  0.56844666  0.01498640     0.28700
C460        C  0.63420784  0.57053819  0.01095561     0.28700
C461        C  0.56334597  0.37143387  0.01009498     0.28700
C462        C  0.63872619  0.37357340  0.00608584     0.28700
C463        C  0.49959955  0.50594631  0.02192678     0.37300
C464        C  0.50097886  0.43062127  0.01977209     0.37300
C465        C  0.69691632  0.51130225  0.01094906     0.37300
C466        C  0.69857329  0.43601523  0.00891918     0.37300
C467        C  0.57198911  0.61378660  0.00790021    -0.20200
C468        C  0.61874485  0.61508698  0.00544849    -0.20200
C469        C  0.57866869  0.32714648  0.00376931    -0.20200
C470        C  0.62564030  0.32846142  0.00134958    -0.20200
C471        C  0.45515275  0.49085003  0.02739632    -0.21200
C472        C  0.45601007  0.44366651  0.02608097    -0.21200
C473        C  0.74200690  0.49807764  0.01326700    -0.21200
C474        C  0.74306876  0.45089170  0.01199966    -0.21200
C475        C  0.51293289  0.55327936  0.01914104    -0.16600
C476        C  0.68133106  0.55794269  0.01028782    -0.16600
C477        C  0.68527094  0.38886513  0.00587733    -0.16600
C478        C  0.51607280  0.38414648  0.01457668    -0.16600
H479        H  0.54990730  0.64321667  0.00470895     0.16300
H480        H  0.63900718  0.64563874  0.99995567     0.16300
H481        H  0.55815736  0.29673052  0.00138387     0.16300
H482        H  0.64765657  0.29922598  0.99671469     0.16300
H483        H  0.42504692  0.51171524  0.03162385     0.14600
H484        H  0.42665930  0.42150262  0.02913931     0.14600
H485        H  0.77122188  0.52013978  0.01565616     0.14600
H486        H  0.77334329  0.42993179  0.01322026     0.14600
H487        H  0.59859678  0.50762206  0.02368051     0.27900
H488        H  0.59976590  0.43395994  0.01693947     0.27900
N489        N  0.07809122  0.49201877  0.58080127    -0.34900
N490        N  0.07624302  0.42023666  0.51344885    -0.55500
N491        N  0.07148119  0.49196217  0.44197069    -0.34900
N492        N  0.06759170  0.56335946  0.51008951    -0.55500
C493        C  0.07502309  0.45411563  0.60792587     0.28700
C494        C  0.07136652  0.52939897  0.60608183     0.28700
C495        C  0.06699004  0.45373422  0.41745965     0.28700
C496        C  0.06400470  0.52983364  0.41560363     0.28700
C497        C  0.07905928  0.39285916  0.55050628     0.37300
C498        C  0.07623751  0.39257851  0.47793596     0.37300
C499        C  0.07100017  0.59077841  0.54553612     0.37300
C500        C  0.06913286  0.59098014  0.47305476     0.37300
C501        C  0.06719137  0.46782667  0.65109083    -0.20200
C502        C  0.06472699  0.51482870  0.64992280    -0.20200
C503        C  0.05687859  0.46780169  0.37459409    -0.20200
C504        C  0.05504672  0.51526800  0.37343899    -0.20200
C505        C  0.08052471  0.34756268  0.53834061    -0.21200
C506        C  0.07885154  0.34735555  0.49285332    -0.21200
C507        C  0.07445020  0.63594276  0.53070907    -0.21200
C508        C  0.07304246  0.63609494  0.48534045    -0.21200
C509        C  0.07805585  0.40732360  0.59546147    -0.16600
C510        C  0.07076000  0.57636887  0.59124385    -0.16600
C511        C  0.06576700  0.57711357  0.42816969    -0.16600
C512        C  0.07190802  0.40658104  0.43230831    -0.16600
H513        H  0.06287328  0.44619560  0.68055988     0.16300
H514        H  0.05784434  0.53570830  0.67834473     0.16300
H515        H  0.05116065  0.44609392  0.34688668     0.16300
H516        H  0.04771408  0.53662866  0.34470987     0.16300
H517        H  0.08211168  0.31757912  0.56004095     0.14600
H518        H  0.07882967  0.31705945  0.47311196     0.14600
H519        H  0.07817074  0.66598377  0.55032138     0.14600
H520        H  0.07491534  0.66630426  0.46388247     0.14600
H521        H  0.08500103  0.49241441  0.54707328     0.27900
H522        H  0.08036612  0.49227223  0.47475087     0.27900
N523        N  0.55699465  0.97767255  0.59549128    -0.34900
N524        N  0.62685384  0.98667900  0.52365404    -0.55500
N525        N  0.55417057  0.98952423  0.45779017    -0.34900
N526        N  0.48379630  0.98375635  0.53067132    -0.55500
C527        C  0.59486989  0.98307302  0.61945074     0.28700
C528        C  0.52042137  0.98250858  0.62349629     0.28700
C529        C  0.59156587  0.98950134  0.42978811     0.28700
C530        C  0.51597971  0.98860987  0.43324720     0.28700
C531        C  0.65467177  0.98133669  0.55850069     0.37300
C532        C  0.65359165  0.98607375  0.48630282     0.37300
C533        C  0.45766888  0.97886595  0.56858662     0.37300
C534        C  0.45575651  0.98360451  0.49558809     0.37300
C535        C  0.58215814  0.99103504  0.66308203    -0.20200
C536        C  0.53558311  0.99066092  0.66567598    -0.20200
C537        C  0.57670114  0.98923934  0.38667305    -0.20200
C538        C  0.52959957  0.98867417  0.38880376    -0.20200
C539        C  0.69925163  0.97762410  0.54322846    -0.21200
C540        C  0.69866008  0.98084770  0.49785492    -0.21200
C541        C  0.41252062  0.97585027  0.55745470    -0.21200
C542        C  0.41128367  0.97884907  0.51168071    -0.21200
C543        C  0.64088043  0.97993237  0.60403862    -0.16600
C544        C  0.47365707  0.97871031  0.61310671    -0.16600
C545        C  0.46919073  0.98682388  0.44926051    -0.16600
C546        C  0.63872345  0.98881984  0.44171600    -0.16600
H547        H  0.60421577  0.99682638  0.69037848     0.16300
H548        H  0.51531482  0.99592474  0.69556745     0.16300
H549        H  0.59763647  0.98896451  0.35662194     0.16300
H550        H  0.50785329  0.98791114  0.36059021     0.16300
H551        H  0.72923675  0.97290275  0.56267051     0.14600
H552        H  0.72827649  0.97876740  0.47591904     0.14600
H553        H  0.38341070  0.97209634  0.57997951     0.14600
H554        H  0.38093386  0.97747400  0.49244677     0.14600
H555        H  0.55623116  0.96905441  0.56253308     0.27900
H556        H  0.55464261  0.99004414  0.49188555     0.27900
C557        C  0.77905427  0.67131646  0.92435445    -0.11600
C558        C  0.79909807  0.69772307  0.89897485    -0.13100
C559        C  0.70987413  0.88142479  0.71745689    -0.11600
C560        C  0.72053735  0.84515023  0.73351412    -0.13100
C561        C  0.80997559  0.25930993  0.89577840    -0.11600
C562        C  0.78920377  0.28442790  0.92058659    -0.13100
C563        C  0.79534608  0.05622413  0.71007808    -0.11600
C564        C  0.77145101  0.02923904  0.69219494    -0.13100
C565        C  0.97725964  0.31069501  0.69018605    -0.11600
C566        C  0.94078923  0.29774596  0.70435033    -0.13100
C567        C  0.00118345  0.71242365  0.66236901    -0.11600
C568        C  0.97227357  0.73458493  0.68118823    -0.13100
C569        C  0.41851033  0.65436510  0.92532135    -0.11600
C570        C  0.39745950  0.67067042  0.89494641    -0.13100
C571        C  0.13280575  0.64978291  0.72305750    -0.11600
C572        C  0.15744160  0.66510677  0.75016642    -0.13100
C573        C  0.37084445  0.86202587  0.75292139    -0.11600
C574        C  0.39178555  0.89336442  0.73554978    -0.13100
C575        C  0.20426090  0.16026259  0.58622220    -0.11600
C576        C  0.22787905  0.17618066  0.61419637    -0.13100
C577        C  0.15822567  0.28231444  0.74312829    -0.11600
C578        C  0.13464262  0.30389468  0.71762025    -0.13100
C579        C  0.36836595  0.08492474  0.75176158    -0.11600
C580        C  0.38848983  0.05380033  0.73482404    -0.13100
C581        C  0.39579018  0.27148751  0.89362363    -0.11600
C582        C  0.41908157  0.28760052  0.92174641    -0.13100
C583        C  0.76802675  0.68387585  0.07815881    -0.11600
C584        C  0.78571134  0.71146622  0.10136241    -0.13100
C585        C  0.97543292  0.69124194  0.34256895    -0.11600
C586        C  0.94167308  0.70555683  0.32484894    -0.13100
C587        C  0.74928443  0.90473666  0.34652941    -0.11600
C588        C  0.76872678  0.87585620  0.32508997    -0.13100
C589        C  0.64010017  0.15706159  0.15307822    -0.11600
C590        C  0.66901264  0.17835047  0.17133517    -0.13100
C591        C  0.79422220  0.27904969  0.07517653    -0.11600
C592        C  0.81661200  0.25525541  0.09965311    -0.13100
C593        C  0.76524815  0.06509141  0.35519064    -0.11600
C594        C  0.78480577  0.09554954  0.33440874    -0.13100
C595        C  0.25137872  0.54938101  0.15881252    -0.11600
C596        C  0.26840039  0.57596384  0.18350025    -0.13100
C597        C  0.40755481  0.67364687  0.08063244    -0.11600
C598        C  0.38502490  0.69860939  0.10451006    -0.13100
C599        C  0.13676065  0.69986308  0.33028641    -0.11600
C600        C  0.16773360  0.71782361  0.30862752    -0.13100
C601        C  0.37293286  0.89854488  0.34858397    -0.11600
C602        C  0.35573570  0.87205574  0.32394312    -0.13100
C603        C  0.24810726  0.20141262  0.40740701    -0.11600
C604        C  0.22151486  0.17900773  0.43105902    -0.13100
C605        C  0.44940445  0.17909106  0.19261859    -0.11600
C606        C  0.47964803  0.15899559  0.17266855    -0.13100
C607        C  0.29566199  0.36937118  0.18600941    -0.11600
C608        C  0.27215102  0.39077937  0.16013111    -0.13100
C609        C  0.40154078  0.26869411  0.07692234    -0.11600
C610        C  0.37511477  0.24620036  0.10065407    -0.13100
C611        C  0.35243226  0.05717611  0.34857426    -0.11600
C612        C  0.32891909  0.07864905  0.32271512    -0.13100
C613        C  0.98404362  0.29001254  0.35380623    -0.11600
C614        C  0.95530189  0.26884623  0.33516238    -0.13100
C615        C  0.17480909  0.26887886  0.31490549    -0.11600
C616        C  0.14450518  0.28893832  0.33478648    -0.13100
C617        C  0.49172987  0.79619770  0.78522713    -0.11600
C618        C  0.46708848  0.78103711  0.75801922    -0.13100
C619        C  0.62364530  0.73430961  0.84602239    -0.11600
C620        C  0.65262934  0.71219835  0.82722521    -0.13100
C621        C  0.23410783  0.39307107  0.77363564    -0.11600
C622        C  0.25431768  0.36215855  0.75642501    -0.13100
C623        C  0.25605246  0.58502277  0.75754695    -0.11600
C624        C  0.23552266  0.55348450  0.77509698    -0.13100
C625        C  0.64710109  0.13624977  0.81692221    -0.11600
C626        C  0.68350482  0.14929680  0.80264953    -0.13100
C627        C  0.48948001  0.14389934  0.79034520    -0.11600
C628        C  0.46570000  0.16530670  0.76485846    -0.13100
C629        C  0.91456714  0.56543183  0.79030704    -0.11600
C630        C  0.90414910  0.60173792  0.77428521    -0.13100
C631        C  0.82898663  0.39141066  0.79713634    -0.11600
C632        C  0.85264326  0.41803035  0.81578026    -0.13100
C633        C  0.83786195  0.35290607  0.17334469    -0.11600
C634        C  0.85720471  0.38372600  0.15298772    -0.13100
C635        C  0.87529646  0.54379725  0.16185990    -0.11600
C636        C  0.85540113  0.57252312  0.18312778    -0.13100
C637        C  0.64761780  0.75626565  0.16570440    -0.11600
C638        C  0.68106439  0.74181120  0.18379162    -0.13100
C639        C  0.48656408  0.74846742  0.17769927    -0.11600
C640        C  0.45580527  0.73041908  0.19950596    -0.13100
C641        C  0.85433416  0.76368887  0.42980347    -0.11600
C642        C  0.83627225  0.73621134  0.40673889    -0.13100
C643        C  0.82584724  0.74913167  0.60931177    -0.11600
C644        C  0.84598143  0.77534543  0.58379238    -0.13100
C645        C  0.81223844  0.18814306  0.61074632    -0.11600
C646        C  0.83295095  0.16292683  0.58596527    -0.13100
C647        C  0.82962631  0.16912314  0.43128327    -0.11600
C648        C  0.80750136  0.19301234  0.40666556    -0.13100
C649        C  0.22639913  0.77772072  0.61372633    -0.11600
C650        C  0.20590901  0.79404744  0.58289316    -0.13100
C651        C  0.23935162  0.74960746  0.40335211    -0.11600
C652        C  0.21707200  0.77481826  0.42727272    -0.13100
loop_ 
_geom_bond_atom_site_label_1 
_geom_bond_atom_site_label_2 
_geom_bond_distance 
_geom_bond_site_symmetry_2 
_ccdc_geom_bond_type 
C1            N2   1.347       .  A
C1            N6   1.365       .  A
C1          C650   1.443       .  S
N2            C3   1.347       .  A
C3            N4   1.378       .  A
C3          C652   1.461       .  S
N4            C5   1.380       .  A
C5            N6   1.370       .  A
C5          C374   1.523       .  S
C7            N8   1.373       .  A
C7           N12   1.339       .  A
C7          C646   1.445       .  S
N8            C9   1.379       .  A
C9           N10   1.375       .  A
C9          C376   1.525       .  S
N10          C11   1.370       .  A
C11          N12   1.338       .  A
C11         C647   1.437       .  S
C13          N14   1.339       .  A
C13          N18   1.372       .  A
C13         C644   1.443       .  S
N14          C15   1.338       .  A
C15          N16   1.372       .  A
C15         C641   1.441       .  S
N16          C17   1.377       .  A
C17          N18   1.378       .  A
C17         C373   1.525       .  S
C19          N20   1.370       .  A
C19          N24   1.347       .  A
C19         C637   1.443       .  S
N20          C21   1.372       .  A
C21          N22   1.376       .  A
C21         C410   1.524       .  S
N22          C23   1.373       .  A
C23          N24   1.346       .  A
C23         C639   1.452       .  S
C25          N26   1.369       .  A
C25          N30   1.345       .  A
C25         C635   1.442       .  S
N26          C27   1.373       .  A
C27          N28   1.373       .  A
C27         C443   1.516       .  S
N28          C29   1.369       .  A
C29          N30   1.344       .  A
C29         C634   1.443       .  S
C31          N32   1.358       .  A
C31          N36   1.343       .  A
C31         C629   1.422       .  S
N32          C33   1.363       .  A
C33          N34   1.372       .  A
C33         C442   1.503       .  S
N34          C35   1.370       .  A
C35          N36   1.344       .  A
C35         C632   1.437       .  S
C37          N38   1.344       .  A
C37          N42   1.360       .  A
C37         C625   1.429       .  S
N38          C39   1.346       .  A
C39          N40   1.375       .  A
C39         C627   1.450       .  S
N40          C41   1.377       .  A
C41          N42   1.364       .  A
C41         C408   1.512       .  S
C43          N44   1.370       .  A
C43          N48   1.340       .  A
C43         C624   1.433       .  S
N44          C45   1.372       .  A
C45          N46   1.370       .  A
C45         C441   1.514       .  S
N46          C47   1.367       .  A
C47          N48   1.340       .  A
C47         C621   1.430       .  S
C49          N50   1.368       .  A
C49          N54   1.341       .  A
C49         C619   1.436       .  S
N50          C51   1.374       .  A
C51          N52   1.372       .  A
C51         C407   1.516       .  S
N52          C53   1.366       .  A
C53          N54   1.341       .  A
C53         C617   1.433       .  S
C55          N56   1.368       .  A
C55          N60   1.347       .  A
C55         C613   1.442   1_455  S
N56          C57   1.372       .  A
C57          N58   1.378       .  A
C57         C512   1.525       .  S
N58          C59   1.375       .  A
C59          N60   1.345       .  A
C59         C616   1.457       .  S
O61         Ni67   1.955       .  S
O61          C82   1.276       .  A
O62         Ni85   1.873       .  S
O62          C71   1.260       .  A
O63         Ni67   1.939       .  S
O63         Ni85   1.910       .  S
O63         Ni79   1.918       .  S
O63          H86   0.965       .  S
C64         C610   1.461       .  S
C64          O81   1.259       .  A
C64          O73   1.286       .  A
O65         Ni84   1.956       .  S
O65          C71   1.276       .  A
O66         Ni84   1.873       .  S
O66          C68   1.249       .  A
Ni67         O70   1.996       .  S
Ni67         O72   1.874       .  S
C68         C605   1.452       .  S
C68          O78   1.286       .  A
O69         Ni85   1.888       .  S
O69          C75   1.259       .  A
O70          C75   1.285       .  A
C71         C612   1.458       .  S
O72          C74   1.249       .  A
O73         Ni84   1.995       .  S
C74         C615   1.451       .  S
C74          O80   1.286       .  A
C75         C603   1.462       .  S
H76          O77   0.965       .  S
O77         Ni85   1.917       .  S
O77         Ni79   1.910       .  S
O77         Ni84   1.938       .  S
O78         Ni79   2.003       .  S
Ni79         O83   1.873       .  S
Ni79         O81   1.887       .  S
O80         Ni85   2.003       .  S
C82         C607   1.457       .  S
C82          O83   1.260       .  A
C87          N88   1.340       .  A
C87          N92   1.368       .  A
C87         C601   1.439       .  S
N88          C89   1.340   1_565  A
C89          N90   1.376       .  A
C89         C611   1.452       .  S
N90          C91   1.382   1_545  A
C91          N92   1.374       .  A
C91         C545   1.528       .  S
O93         Ni99   1.932       .  S
O93         C114   1.270       .  A
O94        Ni117   1.896       .  S
O94         C103   1.265       .  A
O95         Ni99   1.935       .  S
O95        Ni117   1.933       .  S
O95        Ni111   1.928       .  S
O95         H118   0.965       .  S
C96         C651   1.463       .  S
C96         O113   1.265       .  A
C96         O105   1.282       .  A
O97        Ni116   1.935       .  S
O97         C103   1.271       .  A
O98        Ni116   1.878       .  S
O98         C100   1.246       .  A
Ni99        O102   1.984       .  S
Ni99        O104   1.879       .  S
C100        C600   1.450       .  S
C100        O110   1.281       .  A
O101       Ni117   1.900       .  S
O101        C107   1.265       .  A
O102        C107   1.281       .  A
C103        C596   1.445       .  S
O104        C106   1.246       .  A
O105       Ni116   1.987       .  S
C106        C640   1.448       .  S
C106        O112   1.280       .  A
C107        C598   1.461       .  S
H108        O109   0.965       .  S
O109       Ni117   1.926       .  S
O109       Ni111   1.932       .  S
O109       Ni116   1.934       .  S
O110       Ni111   1.997       .  S
Ni111       O115   1.897       .  S
Ni111       O113   1.900       .  S
O112       Ni117   1.995       .  S
C114        C602   1.444       .  S
C114        O115   1.265       .  A
O119       Ni125   1.928       .  S
O119        C140   1.271       .  A
O120       Ni143   1.907       .  S
O120        C129   1.267       .  A
O121       Ni125   1.926       .  S
O121       Ni143   1.918       .  S
O121       Ni137   1.909       .  S
O121        H144   0.968       .  S
C122        C592   1.441       .  S
C122        O139   1.258       .  A
C122        O131   1.273       .  A
O123       Ni142   1.929       .  S
O123        C129   1.272       .  A
O124       Ni142   1.885       .  S
O124        C126   1.258       .  A
Ni125       O128   1.962       .  S
Ni125       O130   1.884       .  S
C126        C633   1.438       .  S
C126        O136   1.283       .  A
O127       Ni143   1.884       .  S
O127        C133   1.257       .  A
O128        C133   1.273       .  A
C129        C614   1.444       .  S
O130        C132   1.258       .  A
O131       Ni142   1.962       .  S
C132        C594   1.440       .  S
C132        O138   1.284       .  A
C133        C648   1.440       .  S
H134        O135   0.968       .  S
O135       Ni143   1.909       .  S
O135       Ni137   1.918       .  S
O135       Ni142   1.927       .  S
O136       Ni137   1.988       .  S
Ni137       O141   1.908       .  S
Ni137       O139   1.885       .  S
O138       Ni143   1.991       .  S
C140        C590   1.444       .  S
C140        O141   1.267       .  A
C145        N146   1.369       .  A
C145        N150   1.345       .  A
C145        C587   1.442       .  S
N146        C147   1.372       .  A
C147        N148   1.374   1_565  A
C147        C546   1.517       .  S
N148        C149   1.370       .  A
C149        N150   1.344   1_545  A
C149        C593   1.445       .  S
O151       Ni157   1.940       .  S
O151        C172   1.275       .  A
O152       Ni175   1.900       .  S
O152        C161   1.266       .  A
O153       Ni157   1.926       .  S
O153       Ni175   1.908       .  S
O153       Ni169   1.903       .  S
O153        H176   0.967       .  S
C154        C584   1.444       .  S
C154        O171   1.254       .  A
C154        O163   1.277       .  A
O155       Ni174   1.940       .  S
O155        C161   1.275       .  A
O156       Ni174   1.882       .  S
O156        C158   1.258       .  A
Ni157       O160   1.975       .  S
Ni157       O162   1.880       .  S
C158        C638   1.437       .  S
C158        O168   1.286       .  A
O159       Ni175   1.879       .  S
O159        C165   1.253       .  A
O160        C165   1.276       .  A
C161        C588   1.444       .  S
O162        C164   1.258       .  A
O163       Ni174   1.975       .  S
C164        C586   1.439       .  S
C164        O170   1.287       .  A
C165        C642   1.444       .  S
H166        O167   0.967       .  S
O167       Ni175   1.903       .  S
O167       Ni169   1.909       .  S
O167       Ni174   1.927       .  S
O168       Ni169   1.992       .  S
Ni169       O173   1.900       .  S
Ni169       O171   1.880       .  S
O170       Ni175   1.994       .  S
C172        C636   1.445       .  S
C172        O173   1.266       .  A
C177        N178   1.348       .  A
C177        N182   1.370       .  A
C177        C585   1.445   1_455  S
N178        C179   1.347       .  A
C179        N180   1.374       .  A
C179        C599   1.455       .  S
N180        C181   1.376       .  A
C181        N182   1.372       .  A
C181        C511   1.525       .  S
C183        N184   1.369       .  A
C183        N188   1.344       .  A
C183        C582   1.444       .  S
N184        C185   1.374   1_556  A
C185        N186   1.382       .  A
C185        C478   1.532       .  S
N186        C187   1.378       .  A
C187        N188   1.343   1_554  A
C187        C609   1.459       .  S
O189       Ni195   1.934       .  S
O189        C210   1.272       .  A
O190       Ni213   1.908       .  S
O190        C199   1.266       .  A
O191       Ni195   1.925       .  S
O191       Ni213   1.930       .  S
O191       Ni207   1.917       .  S
O191        H214   0.967       .  S
C192        C628   1.451       .  S
C192        O209   1.262       .  A
C192        O201   1.277       .  A
O193       Ni212   1.935       .  S
O193        C199   1.272       .  A
O194       Ni212   1.884       .  S
O194        C196   1.253       .  A
Ni195       O198   1.971       .  S
Ni195       O200   1.884       .  S
C196        C579   1.425       .  S
C196        O206   1.277       .  A
O197       Ni213   1.895       .  S
O197        C203   1.262       .  A
O198        C203   1.276       .  A
C199        C576   1.449       .  S
O200        C202   1.253       .  A
O201       Ni212   1.973       .  S
C202        C622   1.425       .  S
C202        O208   1.277       .  A
C203        C577   1.450       .  S
H204        O205   0.967       .  S
O205       Ni213   1.917       .  S
O205       Ni207   1.930       .  S
O205       Ni212   1.925       .  S
O206       Ni207   1.971       .  S
Ni207       O211   1.908       .  S
Ni207       O209   1.895       .  S
O208       Ni213   1.970       .  S
C210        C581   1.449       .  S
C210        O211   1.267       .  A
C215        N216   1.340       .  A
C215        N220   1.370       .  A
C215        C574   1.433       .  S
N216        C217   1.340   1_565  A
C217        N218   1.367       .  A
C217        C580   1.430       .  S
N218        C219   1.370   1_545  A
C219        N220   1.372       .  A
C219        C544   1.514       .  S
O221       Ni227   1.921       .  S
O221        C242   1.268       .  A
O222       Ni245   1.913       .  S
O222        C231   1.267       .  A
O223       Ni227   1.926       .  S
O223       Ni245   1.930       .  S
O223       Ni239   1.914       .  S
O223        H246   0.968       .  S
C224        C572   1.435       .  S
C224        O241   1.263       .  A
C224        O233   1.271       .  A
O225       Ni244   1.919       .  S
O225        C231   1.267       .  A
O226       Ni244   1.888       .  S
O226        C228   1.254       .  A
Ni227       O230   1.956       .  S
Ni227       O232   1.889       .  S
C228        C623   1.429       .  S
C228        O238   1.278       .  A
O229       Ni245   1.894       .  S
O229        C235   1.264       .  A
O230        C235   1.272       .  A
C231        C570   1.441       .  S
O232        C234   1.254       .  A
O233       Ni244   1.955       .  S
C234        C573   1.429       .  S
C234        O240   1.276       .  A
C235        C618   1.435       .  S
H236        O237   0.968       .  S
O237       Ni245   1.919       .  S
O237       Ni239   1.933       .  S
O237       Ni244   1.927       .  S
O238       Ni239   1.974       .  S
Ni239       O243   1.919       .  S
Ni239       O241   1.894       .  S
O240       Ni245   1.970       .  S
C242        C649   1.445       .  S
C242        O243   1.270       .  A
C247        N248   1.367       .  A
C247        N252   1.341       .  A
C247        C567   1.435       .  S
N248        C249   1.374       .  A
C249        N250   1.372       .  A
C249        C510   1.515       .  S
N250        C251   1.365       .  A
C251        N252   1.341       .  A
C251        C571   1.432       .  S
C253        N254   1.360       .  A
C253        N258   1.344       .  A
C253        C565   1.429   1_455  S
N254        C255   1.364       .  A
C255        N256   1.377       .  A
C255        C509   1.512       .  S
N256        C257   1.375       .  A
C257        N258   1.346       .  A
C257        C578   1.449       .  S
O259       Ni265   1.961       .  S
O259        C280   1.276       .  A
O260       Ni283   1.866       .  S
O260        C269   1.260       .  A
O261       Ni265   1.906       .  S
O261       Ni283   1.874       .  S
O261       Ni277   1.900       .  S
O261        H284   0.965       .  S
C262        C631   1.432       .  S
C262        O279   1.263       .  A
C262        O271   1.289       .  A
O263       Ni282   1.962       .  S
O263        C269   1.277       .  A
O264       Ni282   1.881       .  S
O264        C266   1.261       .  A
Ni265       O268   1.958       .  S
Ni265       O270   1.883       .  S
C266        C566   1.427       .  S
C266        O276   1.277       .  A
O267       Ni283   1.879       .  S
O267        C273   1.264       .  A
O268        C273   1.288       .  A
C269        C645   1.452       .  S
O270        C272   1.261       .  A
O271       Ni282   1.961       .  S
C272        C626   1.427       .  S
C272        O278   1.277       .  A
C273        C563   1.432       .  S
H274        O275   0.965       .  S
O275       Ni283   1.901       .  S
O275       Ni277   1.875       .  S
O275       Ni282   1.905       .  S
O276       Ni277   1.943       .  S
Ni277       O281   1.865       .  S
Ni277       O279   1.876       .  S
O278       Ni283   1.942       .  S
C280        C561   1.451       .  S
C280        O281   1.259       .  A
C285        N286   1.359       .  A
C285        N290   1.344       .  A
C285        C559   1.425       .  S
N286        C287   1.364       .  A
C287        N288   1.371   1_565  A
C287        C543   1.502       .  S
N288        C289   1.369   1_545  A
C289        N290   1.345       .  A
C289        C564   1.438   1_565  S
O291       Ni297   1.958       .  S
O291        C312   1.275       .  A
O292       Ni315   1.864       .  S
O292        C301   1.260       .  A
O293       Ni297   1.903       .  S
O293       Ni315   1.873       .  S
O293       Ni309   1.904       .  S
O293        H316   0.967       .  S
C294        C620   1.433       .  S
C294        O311   1.265       .  A
C294        O303   1.288       .  A
O295       Ni314   1.960       .  S
O295        C301   1.275       .  A
O296       Ni314   1.880       .  S
O296        C298   1.261       .  A
Ni297       O300   1.954       .  S
Ni297       O302   1.880       .  S
C298        C560   1.423       .  S
C298        O308   1.277       .  A
O299       Ni315   1.885       .  S
O299        C305   1.265       .  A
O300        C305   1.288       .  A
C301        C643   1.450       .  S
O302        C304   1.261       .  A
O303       Ni314   1.954       .  S
C304        C630   1.421       .  S
C304        O310   1.276       .  A
C305        C568   1.433       .  S
H306        O307   0.968       .  S
O307       Ni315   1.904       .  S
O307       Ni309   1.873       .  S
O307       Ni314   1.902       .  S
O308       Ni309   1.940       .  S
Ni309       O313   1.864       .  S
Ni309       O311   1.885       .  S
O310       Ni315   1.937       .  S
C312        C558   1.450       .  S
C312        O313   1.261       .  A
C317        N318   1.364       .  A
C317        N322   1.346   1_556  A
C317        C569   1.439       .  S
N318        C319   1.369   1_556  A
C319        N320   1.380       .  A
C319        C475   1.520       .  S
N320        C321   1.377       .  A
C321        N322   1.346       .  A
C321        C597   1.458       .  S
C323        N324   1.339       .  A
C323        N328   1.373       .  A
C323        C562   1.444       .  S
N324        C325   1.338   1_556  A
C325        N326   1.370       .  A
C325        C591   1.437       .  S
N326        C327   1.375       .  A
C327        N328   1.378   1_554  A
C327        C477   1.523       .  S
C329        N330   1.339   1_556  A
C329        N334   1.372       .  A
C329        C557   1.442       .  S
N330        C331   1.338       .  A
C331        N332   1.371       .  A
C331        C583   1.440       .  S
N332        C333   1.377       .  A
C333        N334   1.377   1_554  A
C333        C476   1.524       .  S
C335        N336   1.368       .  A
C335        N340   1.347       .  A
C335        C589   1.442       .  S
N336        C337   1.372       .  A
C337        N338   1.378       .  A
C337        C409   1.525       .  S
N338        C339   1.375       .  A
C339        N340   1.345       .  A
C339        C606   1.457       .  S
C341        N342   1.340       .  A
C341        N346   1.369       .  A
C341        C595   1.440       .  S
N342        C343   1.340       .  A
C343        N344   1.376       .  A
C343        C608   1.451       .  S
N344        C345   1.381       .  A
C345        N346   1.375       .  A
C345        C444   1.528       .  S
C347        N348   1.369       .  A
C347        N352   1.344       .  A
C347        C575   1.444       .  S
N348        C349   1.374       .  A
C349        N350   1.382       .  A
C349        C375   1.533       .  S
N350        C351   1.378       .  A
C351        N352   1.343       .  A
C351        C604   1.460       .  S
N353        C358   1.364       .  A
N353        C357   1.365   1_455  A
N353        H385   1.033       .  S
N354        C361   1.366       .  A
N354        C362   1.364   1_565  A
N355        C360   1.368       .  A
N355        C359   1.365   1_455  A
N355        H386   1.031       .  S
N356        C363   1.365       .  A
N356        C364   1.366   1_565  A
C357        C365   1.388   1_655  A
C357        C373   1.436       .  A
C358        C374   1.438       .  A
C358        C366   1.389       .  A
C359        C367   1.389       .  A
C359        C376   1.443       .  A
C360        C375   1.444       .  A
C360        C368   1.388       .  A
C361        C373   1.440       .  A
C361        C369   1.386       .  A
C362        C376   1.442       .  A
C362        C370   1.389   1_545  A
C363        C371   1.386       .  A
C363        C374   1.441       .  A
C364        C372   1.387       .  A
C364        C375   1.442       .  A
C365        C366   1.378       .  A
C365        H377   1.082   1_455  S
C366        H378   1.082       .  S
C367        C368   1.384   1_655  A
C367        H379   1.082       .  S
C368        H380   1.082       .  S
C369        C370   1.384       .  A
C369        H381   1.082       .  S
C370        H382   1.083   1_565  S
C371        C372   1.383   1_565  A
C371        H383   1.082       .  S
C372        H384   1.082       .  S
N387        C392   1.362       .  A
N387        C391   1.363       .  A
N387        H419   1.033       .  S
N388        C395   1.362       .  A
N388        C396   1.361   1_556  A
N389        C394   1.367       .  A
N389        C393   1.368       .  A
N389        H420   1.032       .  S
N390        C397   1.363       .  A
N390        C398   1.362   1_556  A
C391        C399   1.388       .  A
C391        C407   1.434       .  A
C392        C408   1.433   1_565  A
C392        C400   1.388       .  A
C393        C401   1.387       .  A
C393        C410   1.446       .  A
C394        C409   1.447   1_565  A
C394        C402   1.389       .  A
C395        C407   1.432       .  A
C395        C403   1.387       .  A
C396        C410   1.432       .  A
C396        C404   1.388       .  A
C397        C405   1.386       .  A
C397        C408   1.433       .  A
C398        C406   1.389       .  A
C398        C409   1.436       .  A
C399        C400   1.378       .  A
C399        H411   1.082       .  S
C400        H412   1.082   1_565  S
C401        C402   1.389       .  A
C401        H413   1.082       .  S
C402        H414   1.082   1_565  S
C403        C404   1.372   1_556  A
C403        H415   1.082       .  S
C404        H416   1.082       .  S
C405        C406   1.377   1_556  A
C405        H417   1.082       .  S
C406        H418   1.082       .  S
N421        C426   1.360       .  A
N421        C425   1.359       .  A
N421        H453   1.032       .  S
N422        C429   1.365       .  A
N422        C430   1.363   1_556  A
N423        C428   1.368       .  A
N423        C427   1.367       .  A
N423        H454   1.031       .  S
N424        C431   1.359       .  A
N424        C432   1.357   1_556  A
C425        C433   1.390       .  A
C425        C441   1.429       .  A
C426        C442   1.426   1_455  A
C426        C434   1.386       .  A
C427        C435   1.390       .  A
C427        C444   1.448       .  A
C428        C443   1.446   1_455  A
C428        C436   1.387       .  A
C429        C441   1.439       .  A
C429        C437   1.385       .  A
C430        C444   1.443       .  A
C430        C438   1.389   1_554  A
C431        C439   1.384       .  A
C431        C442   1.424       .  A
C432        C440   1.390       .  A
C432        C443   1.430       .  A
C433        C434   1.372       .  A
C433        H445   1.082       .  S
C434        H446   1.082       .  S
C435        C436   1.388       .  A
C435        H447   1.082       .  S
C436        H448   1.082       .  S
C437        C438   1.384       .  A
C437        H449   1.082       .  S
C438        H450   1.082   1_556  S
C439        C440   1.372   1_556  A
C439        H451   1.082       .  S
C440        H452   1.082       .  S
N455        C460   1.364       .  A
N455        C459   1.363       .  A
N455        H487   1.032       .  S
N456        C463   1.365       .  A
N456        C464   1.365       .  A
N457        C462   1.365       .  A
N457        C461   1.367       .  A
N457        H488   1.030       .  S
N458        C465   1.365       .  A
N458        C466   1.364       .  A
C459        C467   1.389       .  A
C459        C475   1.437       .  A
C460        C476   1.435       .  A
C460        C468   1.388       .  A
C461        C469   1.388       .  A
C461        C478   1.444       .  A
C462        C477   1.443       .  A
C462        C470   1.389       .  A
C463        C475   1.440       .  A
C463        C471   1.387       .  A
C464        C478   1.442       .  A
C464        C472   1.387       .  A
C465        C473   1.386       .  A
C465        C476   1.439       .  A
C466        C474   1.389       .  A
C466        C477   1.442       .  A
C467        C468   1.378       .  A
C467        H479   1.082       .  S
C468        H480   1.082   1_554  S
C469        C470   1.384       .  A
C469        H481   1.082       .  S
C470        H482   1.082   1_554  S
C471        C472   1.383       .  A
C471        H483   1.082       .  S
C472        H484   1.082       .  S
C473        C474   1.383       .  A
C473        H485   1.082       .  S
C474        H486   1.082       .  S
N489        C494   1.362       .  A
N489        C493   1.362       .  A
N489        H521   1.033       .  S
N490        C497   1.363       .  A
N490        C498   1.362       .  A
N491        C496   1.368       .  A
N491        C495   1.368       .  A
N491        H522   1.032       .  S
N492        C499   1.362       .  A
N492        C500   1.362       .  A
C493        C501   1.388       .  A
C493        C509   1.432       .  A
C494        C510   1.434       .  A
C494        C502   1.388       .  A
C495        C503   1.389       .  A
C495        C512   1.448       .  A
C496        C511   1.447       .  A
C496        C504   1.387       .  A
C497        C509   1.433       .  A
C497        C505   1.386       .  A
C498        C512   1.436       .  A
C498        C506   1.389       .  A
C499        C507   1.387       .  A
C499        C510   1.432       .  A
C500        C508   1.388       .  A
C500        C511   1.433       .  A
C501        C502   1.377       .  A
C501        H513   1.082       .  S
C502        H514   1.082       .  S
C503        C504   1.390       .  A
C503        H515   1.082       .  S
C504        H516   1.082       .  S
C505        C506   1.377       .  A
C505        H517   1.082       .  S
C506        H518   1.082       .  S
C507        C508   1.372       .  A
C507        H519   1.081       .  S
C508        H520   1.082       .  S
N523        C528   1.359       .  A
N523        C527   1.360       .  A
N523        H555   1.035       .  S
N524        C531   1.359       .  A
N524        C532   1.357       .  A
N525        C530   1.367       .  A
N525        C529   1.369       .  A
N525        H556   1.031       .  S
N526        C533   1.365       .  A
N526        C534   1.363       .  A
C527        C535   1.385       .  A
C527        C543   1.424       .  A
C528        C544   1.427       .  A
C528        C536   1.390       .  A
C529        C537   1.387       .  A
C529        C546   1.446       .  A
C530        C545   1.448       .  A
C530        C538   1.390       .  A
C531        C543   1.422       .  A
C531        C539   1.384       .  A
C532        C546   1.429       .  A
C532        C540   1.390       .  A
C533        C541   1.385       .  A
C533        C544   1.438       .  A
C534        C542   1.390       .  A
C534        C545   1.443       .  A
C535        C536   1.372       .  A
C535        H547   1.082       .  S
C536        H548   1.082       .  S
C537        C538   1.387       .  A
C537        H549   1.082       .  S
C538        H550   1.082       .  S
C539        C540   1.372       .  A
C539        H551   1.082       .  S
C540        H552   1.082       .  S
C541        C542   1.385       .  A
C541        H553   1.082       .  S
C542        H554   1.082       .  S
C557        C558   1.215       .  T
C559        C560   1.200       .  T
C561        C562   1.216       .  T
C563        C564   1.208       .  T
C565        C566   1.203       .  T
C567        C568   1.208   1_455  T
C569        C570   1.210       .  T
C571        C572   1.207       .  T
C573        C574   1.206       .  T
C575        C576   1.214       .  T
C577        C578   1.216       .  T
C579        C580   1.204       .  T
C581        C582   1.214       .  T
C583        C584   1.213       .  T
C585        C586   1.212       .  T
C587        C588   1.212       .  T
C589        C590   1.212       .  T
C591        C592   1.211       .  T
C593        C594   1.212       .  T
C595        C596   1.212       .  T
C597        C598   1.222       .  T
C599        C600   1.218       .  T
C601        C602   1.212       .  T
C603        C604   1.223       .  T
C605        C606   1.220       .  T
C607        C608   1.219       .  T
C609        C610   1.223       .  T
C611        C612   1.220       .  T
C613        C614   1.212       .  T
C615        C616   1.220       .  T
C617        C618   1.207       .  T
C619        C620   1.208       .  T
C621        C622   1.204       .  T
C623        C624   1.206       .  T
C625        C626   1.203       .  T
C627        C628   1.217       .  T
C629        C630   1.199       .  T
C631        C632   1.209       .  T
C633        C634   1.211       .  T
C635        C636   1.212       .  T
C637        C638   1.211       .  T
C639        C640   1.217       .  T
C641        C642   1.213       .  T
C643        C644   1.215       .  T
C645        C646   1.216       .  T
C647        C648   1.210       .  T
C649        C650   1.212       .  T
C651        C652   1.223       .  T
