geometry optimzed in LAMMPS
_audit_creation_date              2020-12-01 
_audit_creation_method            'lammps2cif' 
_symmetry_space_group_name_H-M    'P1' 
_symmetry_Int_Tables_number       1 
_symmetry_cell_setting            triclinic 
loop_ 
_symmetry_equiv_pos_as_xyz 
  x,y,z 
_cell_length_a                    53.84835312 
_cell_length_b                    49.52022106045102 
_cell_length_c                    27.752911629590002 
_cell_angle_alpha                 97.4869855072109 
_cell_angle_beta                  90.90586274243256 
_cell_angle_gamma                 123.66211656619157 
loop_ 
_atom_site_label 
_atom_site_type_symbol 
_atom_site_fract_x 
_atom_site_fract_y 
_atom_site_fract_z 
_atom_site_charge 
C1          C  0.32072454  0.17719381  0.15968848     0.80700
N2          N  0.33595666  0.16278338  0.16033627    -0.77600
C3          C  0.36618274  0.18090761  0.15894513     0.83100
N4          N  0.38106804  0.21354627  0.15660364    -0.77600
C5          C  0.36571855  0.22792583  0.15579351     0.83200
N6          N  0.33572949  0.20965725  0.15761822    -0.79300
C7          C  0.31363351  0.16755238  0.28888326     0.80700
N8          N  0.32886792  0.15314811  0.29150651    -0.77600
C9          C  0.35913641  0.17114517  0.29171520     0.83100
N10         N  0.37402245  0.20343072  0.28871260    -0.77600
C11         C  0.35915095  0.21806164  0.28557606     0.83200
N12         N  0.32885985  0.20014988  0.28593580    -0.79300
C13         C  0.20432757  0.35769932  0.03734167     0.80700
N14         N  0.18751341  0.32610787  0.04543288    -0.77600
C15         C  0.15781795  0.31120853  0.05032093     0.83100
N16         N  0.14493085  0.32796111  0.04630173    -0.77600
C17         C  0.16151522  0.35948991  0.03800972     0.83200
N18         N  0.19125534  0.37433775  0.03386374    -0.79300
C19         C  0.20653011  0.36372188  0.42218191     0.80700
N20         N  0.19058203  0.33191159  0.42978526    -0.77600
C21         C  0.16072359  0.31587468  0.43383575     0.83100
N22         N  0.14694291  0.33148471  0.42956761    -0.77600
C23         C  0.16237645  0.36295341  0.42207229     0.83200
N24         N  0.19236653  0.37932149  0.41862983    -0.79300
C25         C  0.10581932  0.04625546  0.15239986     0.76900
Tb26       Tb  0.47365391  0.01747514  0.10694600     1.80700
O27         O  0.08814625  0.01557731  0.14281840    -0.51100
O28         O  0.03444864  0.45520284  0.08078100    -0.58600
C29         C  0.04623890  0.07929012  0.08453329     0.92700
O30         O  0.44109683  0.02524881  0.15279979    -0.58100
Tb31       Tb  0.04822170  0.01428699  0.10431676     1.78100
O32         O  0.43213507  0.47192492  0.07208410    -0.58600
O33         O  0.99133003  0.45965490  0.08879163    -0.77400
O34         O  0.05939729  0.06475986  0.08820015    -0.76700
O35         O  0.03295730  0.01547345  0.02622058    -0.62000
C36         C  0.47533352  0.45732379  0.11462863     0.92300
O37         O  0.49707091  0.02892914  0.18622677    -0.73900
C38         C  0.41588424  0.97856987  0.05742767     0.75800
C39         C  0.05573345  0.46539740  0.05445048     0.76700
O40         O  0.09433870  0.06118079  0.14129310    -0.59200
O41         O  0.06865897  0.49545715  0.05173248    -0.51100
O42         O  0.99010589  0.01303547  0.02256537    -0.77200
O43         O  0.03436262  0.01815997  0.18283198    -0.61200
C44         C  0.01573585  0.02223965  0.20431590     0.90500
C45         C  0.01196331  0.01456922  0.00297818     0.91800
C46         C  0.45420033  0.05550149  0.15243658     0.76100
O47         O  0.43297709  0.00914920  0.05887202    -0.50500
O48         O  0.47830975  0.06759654  0.13299959    -0.51700
O49         O  0.46730987  0.47505993  0.13570041    -0.64500
O50         O  0.01836521  0.06585842  0.08793620    -0.65600
C51         C  0.09930018  0.05146327  0.31229938     0.76900
Tb52       Tb  0.47649324  0.02207548  0.35689297     1.80700
O53         O  0.08547881  0.06377144  0.32946789    -0.51100
O54         O  0.04165182  0.46379036  0.37027776    -0.58600
C55         C  0.04588794  0.08186616  0.40549438     0.92700
O56         O  0.47810190  0.06925930  0.34483340    -0.58100
Tb57       Tb  0.04594756  0.01551697  0.35456861     1.78100
O58         O  0.43165084  0.47531850  0.36772466    -0.58600
O59         O  0.99955993  0.46190457  0.32317599    -0.77400
O60         O  0.05838962  0.06669720  0.39486472    -0.76700
O61         O  0.02573046  0.00734545  0.27516446    -0.62000
C62         C  0.47248311  0.45360080  0.31164361     0.92300
O63         O  0.49162532  0.01874651  0.43414848    -0.73900
C64         C  0.42126973  0.99164654  0.39590142     0.75800
C65         C  0.06621501  0.47866430  0.39682044     0.76700
O66         O  0.08526012  0.02094584  0.31184885    -0.59200
O67         O  0.07823962  0.50912405  0.40714008    -0.51100
O68         O  0.00443343  0.03525038  0.28187328    -0.77200
O69         O  0.03183883  0.01735343  0.43215241    -0.61200
C70         C  0.01049784  0.01643114  0.45222115     0.90500
C71         C  0.01572585  0.02212532  0.25692464     0.91800
C72         C  0.45425368  0.05431258  0.31629597     0.76100
O73         O  0.43954727  0.02237577  0.40087714    -0.50500
O74         O  0.44273531  0.02393959  0.30521658    -0.51700
O75         O  0.46310403  0.47184726  0.30867928    -0.64500
O76         O  0.01817577  0.06927897  0.39476265    -0.65600
C77         C  0.10532624  0.17291239  0.44874621     0.16400
C78         C  0.13218567  0.20420898  0.45342968    -0.32600
C79         C  0.12999741  0.23081392  0.44974387     0.20800
C80         C  0.10231759  0.22651494  0.44396638     0.03000
C81         C  0.07561183  0.19557128  0.44104430    -0.22400
C82         C  0.07779831  0.16890367  0.44256862     0.12200
S83         S  0.10307177  0.13686753  0.44236866    -0.06000
C84         C  0.06482017  0.11646081  0.42902963    -0.09500
C85         C  0.05445841  0.13663419  0.43233762    -0.26100
S86         S  0.10388068  0.26085153  0.43677722    -0.03300
C87         C  0.14231541  0.28141274  0.44056014    -0.16700
C88         C  0.15328240  0.26257041  0.44803271    -0.14700
H89         H  0.15369881  0.20735842  0.45666083     0.20600
H90         H  0.05411588  0.19216245  0.43474595     0.16700
H91         H  0.03144856  0.12835326  0.42286096     0.19200
H92         H  0.17673311  0.27134167  0.45074903     0.12500
C93         C  0.28886021  0.39637688  0.40769976     0.16400
C94         C  0.31649206  0.40032932  0.40293922    -0.32600
C95         C  0.34162721  0.43214668  0.40215720     0.20800
C96         C  0.33938419  0.45892318  0.40599117     0.03000
C97         C  0.31166326  0.45493136  0.41029244    -0.22400
C98         C  0.28649386  0.42304511  0.41102526     0.12200
S99         S  0.26054322  0.36257162  0.89632139    -0.06000
C100        C  0.23875262  0.38065148  0.41658562    -0.09500
C101        C  0.25769716  0.41413521  0.41583970    -0.26100
S102        S  0.37255069  0.49548877  0.40426337    -0.03300
C103        C  0.38949906  0.47438170  0.39792684    -0.16700
C104        C  0.37033651  0.44084955  0.39723634    -0.14700
H105        H  0.32369650  0.38280950  0.89276460     0.20600
H106        H  0.30982596  0.47579125  0.41322392     0.16700
H107        H  0.25087712  0.43112202  0.41944653     0.19200
H108        H  0.38307951  0.42816155  0.89200993     0.12500
C109        C  0.11800709  0.45114904  0.41765514     0.16400
C110        C  0.14298849  0.44941501  0.42111448    -0.32200
C111        C  0.13771025  0.41819640  0.41719139     0.20800
C112        C  0.10877568  0.38995852  0.41088137     0.03000
C113        C  0.08373679  0.39162961  0.40666815    -0.22400
C114        C  0.08906228  0.42288765  0.40980827     0.12200
S115        S  0.12001358  0.48676750  0.42049951    -0.06000
C116        C  0.08156640  0.46339748  0.40919024    -0.09500
C117        C  0.06789361  0.42976463  0.40450607    -0.26100
S118        S  0.10708335  0.35458470  0.40949733    -0.03300
C119        C  0.14578877  0.37809041  0.41705161    -0.16700
C120        C  0.15912979  0.41152350  0.42011007    -0.14700
H121        H  0.16558450  0.47148300  0.42669654     0.20600
H122        H  0.06113652  0.36955620  0.40112451     0.16700
H123        H  0.04400414  0.41143163  0.39598266     0.19200
H124        H  0.18309580  0.42997317  0.42576690     0.12500
C125        C  0.10369745  0.16825706  0.06665631     0.16400
C126        C  0.12973744  0.19866911  0.06211264    -0.32600
C127        C  0.12728542  0.22542754  0.06234365     0.20800
C128        C  0.10011831  0.22204046  0.06672911     0.03000
C129        C  0.07404905  0.19159149  0.07102809    -0.22400
C130        C  0.07651289  0.16484766  0.07095703     0.12200
S131        S  0.10222446  0.13314349  0.06873928    -0.06000
C132        C  0.06460115  0.11363110  0.07604284    -0.09500
C133        C  0.05390383  0.13347493  0.07601540    -0.26100
S134        S  0.10167543  0.25726254  0.06528776    -0.03300
C135        C  0.13928941  0.27674948  0.05806762    -0.16700
C136        C  0.14992759  0.25683786  0.05762118    -0.14700
H137        H  0.15092681  0.20134366  0.05855267     0.20600
H138        H  0.05282732  0.18889144  0.07437710     0.16700
H139        H  0.03104178  0.12562489  0.08073354     0.19200
H140        H  0.17275496  0.26465521  0.05276096     0.12500
C141        C  0.28646926  0.38858039  0.02562314     0.16400
C142        C  0.31417872  0.39232130  0.02379796    -0.32600
C143        C  0.33983166  0.42430777  0.02661837     0.20800
C144        C  0.33786325  0.45125472  0.02988670     0.03000
C145        C  0.31014853  0.44745731  0.03072851    -0.22400
C146        C  0.28460584  0.41558623  0.02897366     0.12200
S147        S  0.25303640  0.35221033  0.02677242    -0.06000
C148        C  0.23644389  0.37368517  0.03210097    -0.09500
C149        C  0.25591681  0.40716121  0.03226230    -0.26100
S150        S  0.36667582  0.98035673  0.03544067    -0.03300
C151        C  0.38848172  0.46725483  0.03698344    -0.16700
C152        C  0.36897040  0.43336554  0.03046037    -0.14700
H153        H  0.31578161  0.37135192  0.02211509     0.20600
H154        H  0.30866465  0.46857833  0.03425965     0.16700
H155        H  0.24955320  0.42455608  0.03580650     0.19200
H156        H  0.37570055  0.41649851  0.03187113     0.12500
C157        C  0.13465992  0.41597910  0.02670898     0.16400
C158        C  0.13218783  0.44258692  0.02563355    -0.32600
C159        C  0.10342506  0.43637120  0.02518578     0.20800
C160        C  0.07813140  0.40496624  0.02505210     0.03000
C161        C  0.08052087  0.37817374  0.02468040    -0.22400
C162        C  0.10936482  0.38452997  0.02616483     0.12200
S163        S  0.16773377  0.41888574  0.03135105    -0.06000
C164        C  0.14727159  0.37728573  0.03287073    -0.09500
C165        C  0.11646494  0.36219878  0.02958607    -0.26100
S166        S  0.04588117  0.40336181  0.03157880    -0.03300
C167        C  0.06680211  0.44545234  0.03488646    -0.16700
C168        C  0.09690847  0.45958529  0.02959372    -0.14700
H169        H  0.15194523  0.46730272  0.02698273     0.20600
H170        H  0.06091346  0.35372283  0.02565195     0.16700
H171        H  0.10012838  0.33632311  0.03031324     0.19200
H172        H  0.11364920  0.48583244  0.03354089     0.12500
C173        C  0.41272305  0.14381808  0.30118662     0.16400
C174        C  0.43755123  0.14180219  0.30599387    -0.32600
C175        C  0.43192560  0.11034759  0.30213391     0.20800
C176        C  0.40292859  0.08222866  0.29349881     0.03000
C177        C  0.37816363  0.08427133  0.28893386    -0.22400
C178        C  0.38375409  0.11566315  0.29318488     0.12200
S179        S  0.41467756  0.17952821  0.30435745    -0.06000
C180        C  0.37603088  0.15617755  0.29497348    -0.09500
C181        C  0.36256463  0.12259066  0.28986054    -0.26100
S182        S  0.40057840  0.04640548  0.29139515    -0.03300
C183        C  0.43901476  0.06951074  0.30291404    -0.16700
C184        C  0.45285708  0.10318350  0.30782716    -0.14700
H185        H  0.46016568  0.16371797  0.31273507     0.20600
H186        H  0.35553736  0.06236989  0.28262442     0.16700
H187        H  0.33862715  0.10423365  0.28334183     0.19200
H188        H  0.47669886  0.12135443  0.31696294     0.12500
C189        C  0.41478912  0.30819829  0.27586071     0.16400
C190        C  0.44078600  0.33903025  0.27447939    -0.32600
C191        C  0.43825943  0.36574590  0.27887500     0.20800
C192        C  0.41087603  0.36197005  0.28260536     0.03000
C193        C  0.38453295  0.33077743  0.28265465    -0.22400
C194        C  0.38727501  0.30404760  0.28004932     0.12200
S195        S  0.41427159  0.27367626  0.27566836    -0.06000
C196        C  0.37649125  0.25303027  0.28148405    -0.09500
C197        C  0.36493239  0.27210093  0.28299221    -0.26100
S198        S  0.41340438  0.39820980  0.29256274    -0.03300
C199        C  0.45180093  0.41827499  0.29398687    -0.16700
C200        C  0.46172367  0.39789345  0.28480237    -0.14700
H201        H  0.46231412  0.34228085  0.27248097     0.20600
H202        H  0.36321710  0.32772324  0.28679415     0.16700
H203        H  0.34177956  0.26328577  0.28698010     0.19200
H204        H  0.48505200  0.40616496  0.28575060     0.12500
C205        C  0.18156090  0.11292268  0.29603096     0.16400
C206        C  0.21054648  0.14100936  0.29603165    -0.32600
C207        C  0.23414166  0.13668741  0.29285296     0.20800
C208        C  0.22913132  0.10584061  0.28997103     0.03000
C209        C  0.20019251  0.07778816  0.28963554    -0.22400
C210        C  0.17663943  0.08209325  0.29255770     0.12200
S211        S  0.15003029  0.11293969  0.30207640    -0.06000
C212        C  0.13015122  0.07097621  0.29965172    -0.09500
C213        C  0.14716282  0.05791946  0.29409515    -0.26100
S214        S  0.26063903  0.10571747  0.28708241    -0.03300
C215        C  0.28088490  0.14771792  0.28947472    -0.16700
C216        C  0.26386405  0.16087434  0.29241650    -0.14700
H217        H  0.21455561  0.16514753  0.29866662     0.20600
H218        H  0.19621379  0.05367766  0.28736085     0.16700
H219        H  0.13867956  0.03230526  0.29385192     0.19200
H220        H  0.27274642  0.18671160  0.29426120     0.12500
C221        C  0.40599316  0.08903731  0.16948482     0.16400
C222        C  0.38198866  0.09249842  0.16703305    -0.32600
C223        C  0.38870942  0.12401685  0.16597232     0.20800
C224        C  0.42133787  0.15558617  0.67852394     0.03000
C225        C  0.44521734  0.15175588  0.67560113    -0.22400
C226        C  0.43536415  0.11597589  0.17128890     0.12200
S227        S  0.40211878  0.05234245  0.16625781    -0.06000
C228        C  0.44042237  0.07334683  0.16659061    -0.09500
C229        C  0.45860041  0.11106996  0.66973316    -0.26100
S230        S  0.42441782  0.19179619  0.67840024    -0.03300
C231        C  0.38263334  0.16533207  0.16144424    -0.16700
C232        C  0.36833346  0.13202144  0.16224387    -0.14700
H233        H  0.35905189  0.07143528  0.16488682     0.20600
H234        H  0.46774858  0.17242435  0.67294071     0.16700
H235        H  0.48201760  0.12769760  0.66469821     0.19200
H236        H  0.34429079  0.11455781  0.16031812     0.12500
C237        C  0.44937354  0.37084411  0.13432296     0.16400
C238        C  0.44648068  0.34120623  0.13680885    -0.32600
C239        C  0.41846791  0.31462124  0.14535739     0.20800
C240        C  0.39446740  0.31749750  0.15151838     0.03000
C241        C  0.39763645  0.34746170  0.15070155    -0.22400
C242        C  0.42562709  0.37400193  0.14181859     0.12200
S243        S  0.48065213  0.40490754  0.11978613    -0.06000
C244        C  0.46170564  0.42375515  0.12432273    -0.09500
C245        C  0.43277468  0.40463853  0.13704649    -0.26100
S246        S  0.36183034  0.28186336  0.15808803    -0.03300
C247        C  0.38089766  0.26303864  0.15353076    -0.16700
C248        C  0.41089868  0.28344373  0.14694799    -0.14700
H249        H  0.46499054  0.33871532  0.13092160     0.20600
H250        H  0.37893431  0.34974009  0.15549236     0.16700
H251        H  0.41751180  0.41234338  0.14079400     0.19200
H252        H  0.42618831  0.27578993  0.14280120     0.12500
C253        C  0.23815125  0.14161853  0.16921265     0.16400
C254        C  0.21049770  0.13727665  0.17339285    -0.32600
C255        C  0.18570387  0.10537154  0.17306948     0.20800
C256        C  0.18812401  0.07871243  0.16894936     0.03000
C257        C  0.21603714  0.08309127  0.16526226    -0.22400
C258        C  0.24099478  0.11524781  0.16534651     0.12200
S259        S  0.27044358  0.17858364  0.16804249    -0.06000
C260        C  0.28836622  0.15865120  0.16250774    -0.09500
C261        C  0.27005352  0.12494222  0.16153804    -0.26100
S262        S  0.15458677  0.04166830  0.16498630    -0.03300
C263        C  0.13756120  0.06271694  0.16794399    -0.16700
C264        C  0.15685819  0.09640234  0.17325692    -0.14700
H265        H  0.20831633  0.15787197  0.17600503     0.20600
H266        H  0.21811506  0.06240344  0.16162252     0.16700
H267        H  0.27756033  0.10857958  0.15832791     0.19200
H268        H  0.14999810  0.11324972  0.17329932     0.12500
C269        C  0.32546659  0.18497467  0.68656976     0.80700
N270        N  0.34011126  0.16975187  0.68561025    -0.77600
C271        C  0.37040285  0.18741329  0.68440792     0.83100
N272        N  0.38584530  0.22031681  0.68367938    -0.77600
C273        C  0.37118456  0.23553457  0.68485723     0.83200
N274        N  0.34116041  0.21772801  0.68637254    -0.79300
C275        C  0.32107775  0.17753120  0.80891824     0.80700
N276        N  0.33574529  0.16232474  0.80863193    -0.77600
C277        C  0.36606492  0.18004130  0.81044507     0.83100
N278        N  0.38161806  0.21289636  0.81235135    -0.77600
C279        C  0.36742424  0.22842018  0.81245617     0.83200
N280        N  0.33698887  0.21072866  0.81060460    -0.79300
C281        C  0.20652847  0.35887169  0.55165119     0.80700
N282        N  0.18911224  0.32722931  0.55898020    -0.77600
C283        C  0.15933959  0.31260316  0.56227079     0.83100
N284        N  0.14691872  0.32976630  0.55786681    -0.77600
C285        C  0.16416892  0.36154148  0.55077953     0.83200
N286        N  0.19399833  0.37603646  0.54771390    -0.79300
C287        C  0.21127550  0.36701236  0.90665203     0.80700
N288        N  0.19473056  0.33522930  0.91374286    -0.77600
C289        C  0.16492260  0.31972043  0.91768960     0.83100
N290        N  0.15163653  0.33599335  0.91371146    -0.77600
C291        C  0.16791243  0.36771605  0.90650860     0.83200
N292        N  0.19784821  0.38333845  0.90344605    -0.79300
C293        C  0.10791934  0.04990825  0.63672053     0.76900
Tb294      Tb  0.47905163  0.02218657  0.60962693     1.80700
O295        O  0.08818876  0.02424364  0.65235419    -0.51100
O296        O  0.04185983  0.46215898  0.59275106    -0.58600
C297        C  0.04863537  0.08163304  0.59570796     0.92700
O298        O  0.44612182  0.02973819  0.65590015    -0.58100
Tb299      Tb  0.04754454  0.01438943  0.60167414     1.78100
O300        O  0.43487953  0.47203154  0.57564494    -0.58600
O301        O  0.99607390  0.46637741  0.59733036    -0.77400
O302        O  0.05975732  0.06850936  0.61594569    -0.76700
O303        O  0.03343745  0.01866830  0.52552918    -0.62000
C304        C  0.47902768  0.45958267  0.61886798     0.92300
O305        O  0.50370236  0.03424970  0.68727120    -0.73900
C306        C  0.42220981  0.98403106  0.55803591     0.75800
C307        C  0.06047691  0.47005727  0.56168376     0.76700
O308        O  0.09758271  0.05849973  0.60540286    -0.59200
O309        O  0.07082071  0.49833668  0.55178545    -0.51100
O310        O  0.99007205  0.01519042  0.52735598    -0.77200
O311        O  0.03331872  0.01247318  0.68054021    -0.61200
C312        C  0.02184968  0.02568184  0.70500597     0.90500
C313        C  0.01099582  0.01634707  0.50482512     0.91800
C314        C  0.45817487  0.05966810  0.65361889     0.76100
O315        O  0.43880868  0.01482579  0.56241630    -0.50500
O316        O  0.48174799  0.07162224  0.63259694    -0.51700
O317        O  0.47148905  0.47814851  0.63853496    -0.64500
O318        O  0.02125850  0.06588258  0.57939465    -0.65600
C319        C  0.10574598  0.05688763  0.81072722     0.76900
Tb320      Tb  0.48324399  0.03018010  0.85580956     1.80700
O321        O  0.09045357  0.06793153  0.82528434    -0.51100
O322        O  0.05274981  0.47613151  0.87374369    -0.58600
C323        C  0.05444965  0.08672193  0.90719455     0.92700
O324        O  0.48460672  0.07687258  0.84237496    -0.58100
Tb325      Tb  0.05335105  0.02022237  0.85560679     1.78100
O326        O  0.43693274  0.48149620  0.86822229    -0.58600
O327        O  0.00637217  0.47119754  0.83598473    -0.77400
O328        O  0.06670344  0.07130186  0.89677565    -0.76700
O329        O  0.03249597  0.01126218  0.77615498    -0.62000
C330        C  0.48048532  0.46284251  0.81523879     0.92300
O331        O  0.49355885  0.02392001  0.93351238    -0.73900
C332        C  0.42737170  0.99824184  0.89205298     0.75800
C333        C  0.07875780  0.49197190  0.89570235     0.76700
O334        O  0.09380574  0.02725034  0.81493906    -0.59200
O335        O  0.09082255  0.52248939  0.90326706    -0.51100
O336        O  0.01444827  0.04232956  0.78390686    -0.77200
O337        O  0.03690189  0.01987502  0.93278383    -0.61200
C338        C  0.01425755  0.01713433  0.95099254     0.90500
C339        C  0.02336237  0.02687405  0.75801966     0.91800
C340        C  0.46023381  0.06142116  0.81509481     0.76100
O341        O  0.44552299  0.02901224  0.89889122    -0.50500
O342        O  0.44872551  0.03102105  0.80462023    -0.51700
O343        O  0.47000326  0.47993001  0.81068270    -0.64500
O344        O  0.02671753  0.07428929  0.89682767    -0.65600
C345        C  0.11400281  0.17846955  0.93746655     0.16400
C346        C  0.13992800  0.20951318  0.93558883    -0.32600
C347        C  0.13661621  0.23558010  0.93479446     0.20800
C348        C  0.10894460  0.23121940  0.93741501     0.03000
C349        C  0.08320121  0.20041709  0.94091042    -0.22400
C350        C  0.08633859  0.17412447  0.94006168     0.12200
S351        S  0.11248956  0.14287665  0.93008524    -0.06000
C352        C  0.07401229  0.12179063  0.92839425    -0.09500
C353        C  0.06335704  0.14169256  0.93590418    -0.26100
S354        S  0.10921692  0.26531263  0.93249740    -0.03300
C355        C  0.14698407  0.28557076  0.92630017    -0.16700
C356        C  0.15863572  0.26685520  0.92881657    -0.14700
H357        H  0.16139284  0.21282013  0.93214822     0.20600
H358        H  0.06147880  0.19676189  0.94166067     0.16700
H359        H  0.03987873  0.13284465  0.93344798     0.19200
H360        H  0.18175916  0.27538782  0.92514132     0.12500
C361        C  0.29408266  0.39956931  0.90007925     0.16400
C362        C  0.32195901  0.40376124  0.89791863    -0.32600
C363        C  0.34745676  0.43601684  0.90259643     0.20800
C364        C  0.34530094  0.46288560  0.90943848     0.03000
C365        C  0.31745565  0.45868017  0.91133793    -0.22400
C366        C  0.29198354  0.42646669  0.90632826     0.12200
S367        S  0.25599976  0.35988017  0.41072491    -0.06000
C368        C  0.24361042  0.38366919  0.90346872    -0.09500
C369        C  0.26304683  0.41748114  0.90788183    -0.26100
S370        S  0.37863007  0.49995224  0.91294408    -0.03300
C371        C  0.39559396  0.47902753  0.90409527    -0.16700
C372        C  0.37639740  0.44516860  0.89945301    -0.14700
H373        H  0.31834935  0.37948772  0.40022620     0.20600
H374        H  0.31571270  0.47963146  0.91642328     0.16700
H375        H  0.25645427  0.43465179  0.91330259     0.19200
H376        H  0.37695863  0.42369158  0.39243212     0.12500
C377        C  0.13000891  0.46248118  0.91005666     0.16400
C378        C  0.15420068  0.45911147  0.91124380    -0.32200
C379        C  0.14748203  0.42707689  0.90541730     0.20800
C380        C  0.11804423  0.39976885  0.89907508     0.03000
C381        C  0.09397846  0.40313234  0.89732039    -0.22400
C382        C  0.10065078  0.43500607  0.90279726     0.12200
S383        S  0.13313212  0.49899082  0.91524780    -0.06000
C384        C  0.09454173  0.47675474  0.90622198    -0.09500
C385        C  0.08021193  0.44304376  0.90064637    -0.26100
S386        S  0.11428172  0.36313442  0.89541706    -0.03300
C387        C  0.15280375  0.38463183  0.90256922    -0.16700
C388        C  0.16766865  0.41848746  0.90676959    -0.14700
H389        H  0.17716933  0.48045125  0.91663979     0.20600
H390        H  0.07099882  0.38179286  0.89220667     0.16700
H391        H  0.05616281  0.42531377  0.89333399     0.19200
H392        H  0.19180486  0.43585759  0.91239894     0.12500
C393        C  0.10703873  0.17158038  0.58600500     0.16400
C394        C  0.13305853  0.20254898  0.58424752    -0.32600
C395        C  0.12957683  0.22796052  0.57817505     0.20800
C396        C  0.10153282  0.22288427  0.57414148     0.03000
C397        C  0.07550408  0.19182059  0.57509220    -0.22400
C398        C  0.07897806  0.16641247  0.58100529     0.12200
S399        S  0.10641554  0.13773262  0.59476602    -0.06000
C400        C  0.06792377  0.11644087  0.59112666    -0.09500
C401        C  0.05642103  0.13471639  0.58337186    -0.26100
S402        S  0.10211477  0.25696383  0.56757564    -0.03300
C403        C  0.14053807  0.27810172  0.56905749    -0.16700
C404        C  0.15208051  0.25962570  0.57517397    -0.14700
H405        H  0.15499260  0.20668514  0.58763925     0.20600
H406        H  0.05354980  0.18765803  0.57152929     0.16700
H407        H  0.03281742  0.12542304  0.58044038     0.19200
H408        H  0.17560860  0.26873214  0.57665490     0.12500
C409        C  0.28849587  0.38784650  0.54337314     0.16400
C410        C  0.31612289  0.39124282  0.54337693    -0.32600
C411        C  0.34149051  0.42212224  0.53857500     0.20800
C412        C  0.33930284  0.44822516  0.53322598     0.03000
C413        C  0.31171703  0.44475109  0.53287457    -0.22400
C414        C  0.28649651  0.41411291  0.53843202     0.12200
S415        S  0.25527755  0.35292988  0.55078659    -0.06000
C416        C  0.23864953  0.37410887  0.54748083    -0.09500
C417        C  0.25797669  0.40639521  0.54074338    -0.26100
S418        S  0.37317659  0.98637412  0.53936134    -0.03300
C419        C  0.38999782  0.46445461  0.54000465    -0.16700
C420        C  0.37066975  0.43128004  0.54221315    -0.14700
H421        H  0.31789488  0.37098696  0.54830066     0.20600
H422        H  0.31010129  0.46532977  0.52964561     0.16700
H423        H  0.25154045  0.42338964  0.53783573     0.19200
H424        H  0.37768464  0.41540774  0.54981287     0.12500
C425        C  0.13885525  0.41955179  0.54096628     0.16400
C426        C  0.13682168  0.44641250  0.53925113    -0.32600
C427        C  0.10817677  0.44057013  0.53792620     0.20800
C428        C  0.08266656  0.40937921  0.53822589     0.03000
C429        C  0.08465362  0.38243950  0.53899471    -0.22400
C430        C  0.11329434  0.38832904  0.54070261     0.12200
S431        S  0.17158621  0.42167569  0.54494507    -0.06000
C432        C  0.15055513  0.38003901  0.54634863    -0.09500
C433        C  0.11986384  0.36556815  0.54376380    -0.26100
S434        S  0.05049543  0.40808161  0.54284133    -0.03300
C435        C  0.07164017  0.44995172  0.54428124    -0.16700
C436        C  0.10184503  0.46389077  0.54029928    -0.14700
H437        H  0.15675675  0.47094177  0.54005755     0.20600
H438        H  0.06481914  0.35812351  0.53997981     0.16700
H439        H  0.10319824  0.33974375  0.54440219     0.19200
H440        H  0.11866461  0.49007989  0.54357959     0.12500
C441        C  0.41851184  0.15091282  0.80713511     0.16400
C442        C  0.44313825  0.14843349  0.80691964    -0.32600
C443        C  0.43729063  0.11697301  0.80389843     0.20800
C444        C  0.40822087  0.08921120  0.80071209     0.03000
C445        C  0.38360781  0.09169515  0.80080245    -0.22400
C446        C  0.38946798  0.12317478  0.80426685     0.12200
S447        S  0.42094143  0.18685617  0.81132402    -0.06000
C448        C  0.38238935  0.16425131  0.80915295    -0.09500
C449        C  0.36855826  0.13066124  0.80536265    -0.26100
S450        S  0.40580702  0.05341060  0.79926272    -0.03300
C451        C  0.44433819  0.07613413  0.80340603    -0.16700
C452        C  0.45824129  0.10961434  0.80571027    -0.14700
H453        H  0.46582613  0.17006579  0.80955048     0.20600
H454        H  0.36094616  0.07010422  0.79873765     0.16700
H455        H  0.34458371  0.11273638  0.80329286     0.19200
H456        H  0.48228150  0.12761823  0.81058886     0.12500
C457        C  0.42485421  0.31900743  0.80800593     0.16400
C458        C  0.45103691  0.34953100  0.80569821    -0.32600
C459        C  0.44811937  0.37533269  0.80065593     0.20800
C460        C  0.42038642  0.37104116  0.79748372     0.03000
C461        C  0.39404257  0.34030657  0.79959217    -0.22400
C462        C  0.39698941  0.31444154  0.80525581     0.12200
S463        S  0.42407623  0.28495449  0.81401338    -0.06000
C464        C  0.38564815  0.26391550  0.81229170    -0.09500
C465        C  0.37420217  0.28265717  0.80790127    -0.26100
S466        S  0.42214633  0.40634489  0.79541613    -0.03300
C467        C  0.46067449  0.42705928  0.80100793    -0.16700
C468        C  0.47124428  0.40725477  0.80202931    -0.14700
H469        H  0.47279698  0.35316342  0.80865445     0.20600
H470        H  0.37235329  0.33683534  0.79763100     0.16700
H471        H  0.35062844  0.27340863  0.80548062     0.19200
H472        H  0.49469601  0.41608246  0.80735932     0.12500
C473        C  0.18746810  0.12003383  0.79355839     0.16400
C474        C  0.21652866  0.14875407  0.79704658    -0.32600
C475        C  0.24074539  0.14535235  0.79913975     0.20800
C476        C  0.23613614  0.11473343  0.79706042     0.03000
C477        C  0.20723352  0.08612353  0.79227754    -0.22400
C478        C  0.18317587  0.08954572  0.79083932     0.12200
S479        S  0.15517807  0.11885618  0.79740514    -0.06000
C480        C  0.13608621  0.07697275  0.79592689    -0.09500
C481        C  0.15379876  0.06479399  0.79103589    -0.26100
S482        S  0.26802685  0.11544517  0.80139036    -0.03300
C483        C  0.28811979  0.15754882  0.80564943    -0.16700
C484        C  0.27070934  0.17017962  0.80407936    -0.14700
H485        H  0.22014144  0.17270869  0.79967466     0.20600
H486        H  0.20366525  0.06226197  0.79104597     0.16700
H487        H  0.14599455  0.03947826  0.79192148     0.19200
H488        H  0.27946459  0.19599247  0.80605391     0.12500
C489        C  0.40984813  0.09350313  0.67803320     0.16400
C490        C  0.38600075  0.09737642  0.68129635    -0.32600
C491        C  0.39243260  0.12897217  0.68127767     0.20800
C492        C  0.41801123  0.15106625  0.16795655     0.03000
C493        C  0.44211636  0.14766409  0.17097572    -0.22400
C494        C  0.43875749  0.12011052  0.67521823     0.12200
S495        S  0.40635857  0.05683436  0.67417349    -0.06000
C496        C  0.44420282  0.07748652  0.66837929    -0.09500
C497        C  0.45534973  0.10709289  0.16979607    -0.26100
S498        S  0.42119915  0.18708765  0.16519252    -0.03300
C499        C  0.38635432  0.17093602  0.68245479    -0.16700
C500        C  0.37223998  0.13760645  0.68350956    -0.14700
H501        H  0.36338878  0.07662217  0.68319420     0.20600
H502        H  0.46500338  0.16858408  0.17175182     0.16700
H503        H  0.47919979  0.12384809  0.16796849     0.19200
H504        H  0.34851288  0.12062387  0.68601904     0.12500
C505        C  0.45363556  0.37478120  0.64609126     0.16400
C506        C  0.45081540  0.34553080  0.65153687    -0.32600
C507        C  0.42372161  0.32050011  0.66565769     0.20800
C508        C  0.40044287  0.32438947  0.67370990     0.03000
C509        C  0.40363708  0.35404977  0.66991806    -0.22400
C510        C  0.43078406  0.37912156  0.65600147     0.12200
S511        S  0.48377161  0.40698857  0.62561193    -0.06000
C512        C  0.46569821  0.42680570  0.63156503    -0.09500
C513        C  0.43780533  0.40926800  0.64853923    -0.26100
S514        S  0.36837812  0.29010199  0.68573741    -0.03300
C515        C  0.38680820  0.27056503  0.68137768    -0.16700
C516        C  0.41618391  0.28975401  0.67071031    -0.14700
H517        H  0.46862590  0.34212194  0.64385555     0.20600
H518        H  0.38553362  0.35715748  0.67639271     0.16700
H519        H  0.42316391  0.41773495  0.65372900     0.19200
H520        H  0.43083233  0.28133202  0.66522272     0.12500
C521        C  0.24154287  0.14839826  0.67297749     0.16400
C522        C  0.21343738  0.14310895  0.66470255    -0.32600
C523        C  0.18827987  0.11093557  0.66143007     0.20800
C524        C  0.19078823  0.08507885  0.66701837     0.03000
C525        C  0.21906609  0.09031585  0.67459004    -0.22400
C526        C  0.24438021  0.12258262  0.67707106     0.12200
S527        S  0.27452125  0.18571301  0.67754636    -0.06000
C528        C  0.29264688  0.16646032  0.68391557    -0.09500
C529        C  0.27384977  0.13281474  0.68313679    -0.26100
S530        S  0.15717020  0.04788197  0.66231122    -0.03300
C531        C  0.13999976  0.06757478  0.65146038    -0.16700
C532        C  0.15923040  0.10095760  0.65185145    -0.14700
H533        H  0.21127882  0.16318706  0.66057738     0.20600
H534        H  0.22123823  0.07020082  0.67831586     0.16700
H535        H  0.28130901  0.11677238  0.68644108     0.19200
H536        H  0.15228975  0.11697093  0.64479643     0.12500
C537        C  0.31378829  0.67360499  0.16790895     0.80700
N538        N  0.32894692  0.65898335  0.16871394    -0.77600
C539        C  0.35925840  0.67703685  0.16766317     0.83100
N540        N  0.37417593  0.70963032  0.16514928    -0.77600
C541        C  0.35905845  0.72423623  0.16410065     0.83200
N542        N  0.32901282  0.70616148  0.16586102    -0.79300
C543        C  0.31095575  0.66347745  0.29343238     0.80700
N544        N  0.32637295  0.64916102  0.29350083    -0.77600
C545        C  0.35663731  0.66763948  0.29411760     0.83100
N546        N  0.37131037  0.70026138  0.29388873    -0.77600
C547        C  0.35621227  0.71478053  0.29327001     0.83200
N548        N  0.32594170  0.69642016  0.29341294    -0.79300
C549        C  0.19967061  0.85325400  0.04971820     0.80700
N550        N  0.18236558  0.82136258  0.05593820    -0.77600
C551        C  0.15238781  0.80611609  0.05778737     0.83100
N552        N  0.13961267  0.82293220  0.05307375    -0.77600
C553        C  0.15676255  0.85495535  0.04713986     0.83200
N554        N  0.18679910  0.87002530  0.04554455    -0.79300
C555        C  0.20634012  0.86476548  0.42125904     0.80700
N556        N  0.18990415  0.83247900  0.42604580    -0.77600
C557        C  0.15984692  0.81611561  0.42792794     0.83100
N558        N  0.14622004  0.83205697  0.42434921    -0.77600
C559        C  0.16228403  0.86423340  0.41969008     0.83200
N560        N  0.19248270  0.88071647  0.41844516    -0.79300
C561        C  0.09729198  0.53862609  0.15775606     0.76900
Tb562      Tb  0.47670940  0.52200277  0.10802102     1.80700
O563        O  0.08037454  0.50782525  0.14643272    -0.51100
O564        O  0.03353271  0.96131133  0.06433881    -0.58600
C565        C  0.04339589  0.57507878  0.09341439     0.92700
O566        O  0.44233710  0.52733131  0.15235263    -0.58100
Tb567      Tb  0.04053357  0.50605290  0.10601194     1.78100
O568        O  0.42831152  0.96666433  0.07657925    -0.58600
O569        O  0.01024321  0.97140363  0.13697291    -0.77400
O570        O  0.05550665  0.55934559  0.09649010    -0.76700
O571        O  0.03206806  0.51625096  0.03091749    -0.62000
C572        C  0.47133014  0.95194629  0.11016301     0.92300
O573        O  0.50135712  0.53380678  0.18654580    -0.73900
C574        C  0.42022743  0.48497027  0.05465572     0.75800
C575        C  0.05903783  0.97030582  0.05139003     0.76700
O576        O  0.08483922  0.55290162  0.14845255    -0.59200
O577        O  0.07771622  0.00099780  0.06022696    -0.51100
O578        O  0.98720927  0.50959276  0.02718721    -0.77200
O579        O  0.02432826  0.50429091  0.18399158    -0.61200
C580        C  0.00868814  0.51284547  0.20651053     0.90500
C581        C  0.01023971  0.51387309  0.00792857     0.91800
C582        C  0.45460491  0.55759354  0.15319350     0.76100
O583        O  0.43728814  0.51578521  0.05984480    -0.50500
O584        O  0.47949175  0.57109240  0.13586880    -0.51700
O585        O  0.46453643  0.97024182  0.13341858    -0.64500
O586        O  0.01550816  0.56234896  0.09452587    -0.65600
C587        C  0.09745620  0.54719963  0.32025889     0.76900
Tb588      Tb  0.47748799  0.52236352  0.35311779     1.80700
O589        O  0.08366799  0.55964733  0.33691037    -0.51100
O590        O  0.04760273  0.96985204  0.36341648    -0.58600
C591        C  0.04737840  0.58041550  0.40327624     0.92700
O592        O  0.47745518  0.56907574  0.34540186    -0.58100
Tb593      Tb  0.04312792  0.51131191  0.35986008     1.78100
O594        O  0.43119583  0.97594250  0.37467021    -0.58600
O595        O  0.99957105  0.96461340  0.33820162    -0.77400
O596        O  0.05777593  0.56281364  0.40271049    -0.76700
O597        O  0.02674129  0.50872427  0.28049192    -0.62000
C598        C  0.47065402  0.95174124  0.32119508     0.92300
O599        O  0.49069580  0.51730064  0.43077628    -0.73900
C600        C  0.42082726  0.49049957  0.38741993     0.75800
C601        C  0.07114648  0.98511166  0.39264714     0.76700
O602        O  0.08324790  0.51667671  0.31969923    -0.59200
O603        O  0.08167115  0.01520070  0.40436920    -0.51100
O604        O  0.99089872  0.51866132  0.28149840    -0.77200
O605        O  0.02467199  0.50801392  0.43548349    -0.61200
C606        C  0.00901987  0.51591611  0.45904671     0.90500
C607        C  0.00887485  0.51365643  0.25948324     0.91800
C608        C  0.45567887  0.55492470  0.31256726     0.76100
O609        O  0.43890706  0.52126930  0.39357234    -0.50500
O610        O  0.44616378  0.52538551  0.29741203    -0.51700
O611        O  0.46053833  0.96943097  0.31997472    -0.64500
O612        O  0.02068510  0.56926928  0.38702181    -0.65600
C613        C  0.10748976  0.67276813  0.43739216     0.16400
C614        C  0.13387947  0.70434797  0.44046579    -0.32600
C615        C  0.13080861  0.73064792  0.43938941     0.20800
C616        C  0.10285067  0.72584518  0.43727471     0.03000
C617        C  0.07667314  0.69458972  0.43581702    -0.22400
C618        C  0.07966107  0.66825066  0.43500535     0.12200
S619        S  0.10581044  0.63693113  0.43026379    -0.06000
C620        C  0.06724181  0.61588886  0.42216465    -0.09500
C621        C  0.05659027  0.63582348  0.42700028    -0.26100
S622        S  0.10337862  0.76008836  0.43295999    -0.03300
C623        C  0.14172448  0.78128196  0.43329798    -0.16700
C624        C  0.15337778  0.76265579  0.43748109    -0.14700
H625        H  0.15562868  0.70800612  0.44108953     0.20600
H626        H  0.05484375  0.69072575  0.43275930     0.16700
H627        H  0.03318942  0.62708731  0.42141491     0.19200
H628        H  0.17688474  0.77180910  0.43788185     0.12500
C629        C  0.28942994  0.89788551  0.41503681     0.16400
C630        C  0.31721363  0.90190021  0.41246808    -0.32600
C631        C  0.34254157  0.93380227  0.41296176     0.20800
C632        C  0.34036780  0.96061641  0.41642790     0.03000
C633        C  0.31257433  0.95661812  0.41923983    -0.22400
C634        C  0.28717899  0.92462829  0.41819971     0.12200
S635        S  0.26371090  0.86582864  0.91428197    -0.06000
C636        C  0.23888774  0.88193706  0.41882522    -0.09500
C637        C  0.25816391  0.91561939  0.42026196    -0.26100
S638        S  0.37357515  0.99714175  0.41480948    -0.03300
C639        C  0.39043617  0.97596931  0.40870419    -0.16700
C640        C  0.37127472  0.94247585  0.40852316    -0.14700
H641        H  0.32680727  0.88689492  0.90823288     0.20600
H642        H  0.31079030  0.97749329  0.42169867     0.16700
H643        H  0.25137698  0.93262712  0.42319136     0.19200
H644        H  0.38517383  0.93187775  0.90041113     0.12500
C645        C  0.12179379  0.95665010  0.41974200     0.16400
C646        C  0.14621433  0.95392549  0.42477434    -0.32200
C647        C  0.14007922  0.92217485  0.41921261     0.20800
C648        C  0.11089266  0.89443432  0.41011865     0.03000
C649        C  0.08652676  0.89714203  0.40488365    -0.22400
C650        C  0.09270129  0.92881450  0.40939193     0.12200
S651        S  0.12456396  0.99283925  0.42239018    -0.06000
C652        C  0.08631322  0.97007215  0.40747015    -0.09500
C653        C  0.07221852  0.93638303  0.40224338    -0.26100
S654        S  0.10795748  0.85817895  0.40594524    -0.03300
C655        C  0.14652174  0.88052285  0.41613122    -0.16700
C656        C  0.16072556  0.91432661  0.42219159    -0.14700
H657        H  0.16900770  0.97558474  0.43214928     0.20600
H658        H  0.06374959  0.87546834  0.39699584     0.16700
H659        H  0.04845028  0.91838174  0.39154242     0.19200
H660        H  0.18475326  0.93216776  0.42954396     0.12500
C661        C  0.10137741  0.66542126  0.08316440     0.16400
C662        C  0.12726883  0.69665516  0.08192763    -0.32600
C663        C  0.12344708  0.72168389  0.07460174     0.20800
C664        C  0.09520327  0.71597040  0.06888215     0.03000
C665        C  0.06935305  0.68474209  0.06982989    -0.22400
C666        C  0.07316208  0.65974486  0.07712793     0.12200
S667        S  0.10104956  0.63173759  0.09207408    -0.06000
C668        C  0.06245660  0.60985582  0.08767838    -0.09500
C669        C  0.05076825  0.62794698  0.07960697    -0.26100
S670        S  0.09529619  0.74951807  0.06044004    -0.03300
C671        C  0.13383165  0.77142981  0.06393652    -0.16700
C672        C  0.14575030  0.75350948  0.07174000    -0.14700
H673        H  0.14932878  0.70122560  0.08638262     0.20600
H674        H  0.04727384  0.68012848  0.06508018     0.16700
H675        H  0.02711483  0.61839419  0.07603863     0.19200
H676        H  0.16940393  0.76313428  0.07464704     0.12500
C677        C  0.28209218  0.88334607  0.04370452     0.16400
C678        C  0.30970901  0.88674896  0.04359866    -0.32600
C679        C  0.33515117  0.91778127  0.03976715     0.20800
C680        C  0.33310344  0.94411694  0.03561257     0.03000
C681        C  0.30548144  0.94063774  0.03531031    -0.22400
C682        C  0.28011530  0.90973939  0.03971949     0.12200
S683        S  0.24879666  0.84806502  0.04959469    -0.06000
C684        C  0.23202675  0.86911547  0.04680116    -0.09500
C685        C  0.25142290  0.90172537  0.04138579    -0.26100
S686        S  0.37150550  0.48819968  0.03733256    -0.03300
C687        C  0.38374832  0.96001816  0.04179652    -0.16700
C688        C  0.36426229  0.92674006  0.04306878    -0.14700
H689        H  0.31139304  0.86632267  0.04754969     0.20600
H690        H  0.30391828  0.96130042  0.03267932     0.16700
H691        H  0.24490222  0.91867037  0.03878831     0.19200
H692        H  0.37112110  0.91056940  0.04959778     0.12500
C693        C  0.13251906  0.91367184  0.03701895     0.16400
C694        C  0.13151461  0.94106673  0.03513816    -0.32600
C695        C  0.10333070  0.93616872  0.03182678     0.20800
C696        C  0.07705025  0.90538465  0.03050053     0.03000
C697        C  0.07799824  0.87765498  0.03148162    -0.22400
C698        C  0.10640267  0.88262627  0.03500245     0.12200
S699        S  0.16480447  0.91520951  0.04310143    -0.06000
C700        C  0.14312241  0.87344087  0.04261748    -0.09500
C701        C  0.11237645  0.85929254  0.03819602    -0.26100
S702        S  0.04548740  0.90589997  0.03244535    -0.03300
C703        C  0.06826693  0.94799534  0.03511879    -0.16700
C704        C  0.09836923  0.96039842  0.03341969    -0.14700
H705        H  0.15193101  0.96537849  0.03726537     0.20600
H706        H  0.05764935  0.85354022  0.03108203     0.16700
H707        H  0.09537247  0.83342027  0.03753123     0.19200
H708        H  0.11615189  0.98633132  0.03740043     0.12500
C709        C  0.41112882  0.64176927  0.30277845     0.16400
C710        C  0.43627474  0.64055249  0.30901188    -0.32600
C711        C  0.43158450  0.60951232  0.30145755     0.20800
C712        C  0.40317924  0.58096280  0.28796381     0.03000
C713        C  0.37801155  0.58218175  0.28186425    -0.22400
C714        C  0.38267358  0.61322054  0.28978778     0.12200
S715        S  0.41218369  0.67701630  0.31028267    -0.06000
C716        C  0.37385016  0.65301749  0.29584753    -0.09500
C717        C  0.36107250  0.61950893  0.28597568    -0.26100
S718        S  0.40202990  0.54565277  0.28236155    -0.03300
C719        C  0.44012479  0.56964867  0.29882102    -0.16700
C720        C  0.45294918  0.60315058  0.30796278    -0.14700
H721        H  0.45844179  0.66276470  0.31967349     0.20600
H722        H  0.35579649  0.55994642  0.27170900     0.16700
H723        H  0.33739840  0.60086118  0.27591938     0.19200
H724        H  0.47631941  0.62166047  0.32073347     0.12500
C725        C  0.41088488  0.80529425  0.28539552     0.16400
C726        C  0.43643286  0.83595972  0.28159402    -0.32600
C727        C  0.43475841  0.86316437  0.29208846     0.20800
C728        C  0.40854237  0.86004358  0.30458037     0.03000
C729        C  0.38259175  0.82906432  0.30746947    -0.22400
C730        C  0.38450552  0.80175910  0.29795076     0.12200
S731        S  0.40978800  0.77015967  0.27782500    -0.06000
C732        C  0.37323897  0.75001713  0.29134973    -0.09500
C733        C  0.36246991  0.76971391  0.30102816    -0.26100
S734        S  0.41205131  0.89666184  0.31882522    -0.03300
C735        C  0.44933104  0.91603327  0.30890206    -0.16700
C736        C  0.45817825  0.89513778  0.29442420    -0.14700
H737        H  0.45705634  0.83862772  0.27250083     0.20600
H738        H  0.36224298  0.82651113  0.31808025     0.16700
H739        H  0.34019648  0.76125323  0.31083348     0.19200
H740        H  0.48081290  0.90297194  0.28780498     0.12500
C741        C  0.17940929  0.60837594  0.30376063     0.16400
C742        C  0.20829252  0.63648471  0.30389014    -0.32600
C743        C  0.23175593  0.63212776  0.29928123     0.20800
C744        C  0.22677456  0.60122513  0.29481872     0.03000
C745        C  0.19789320  0.57309934  0.29449954    -0.22400
C746        C  0.17443171  0.57746274  0.29895331     0.12200
S747        S  0.14812583  0.60856614  0.31121680    -0.06000
C748        C  0.12824219  0.56657583  0.30775377    -0.09500
C749        C  0.14501682  0.55331144  0.30079892    -0.26100
S750        S  0.25824996  0.60119960  0.29011536    -0.03300
C751        C  0.27832147  0.64331295  0.29411915    -0.16700
C752        C  0.26133344  0.65641609  0.29879711    -0.14700
H753        H  0.21232761  0.66067199  0.30769588     0.20600
H754        H  0.19389970  0.54894215  0.29111918     0.16700
H755        H  0.13641947  0.52759111  0.29962100     0.19200
H756        H  0.27014231  0.68230229  0.30184287     0.12500
C757        C  0.40262367  0.58696831  0.16601726     0.16400
C758        C  0.37789098  0.58925114  0.16260839    -0.32600
C759        C  0.38357936  0.62076809  0.16751672     0.20800
C760        C  0.41929805  0.65373426  0.68927888     0.03000
C761        C  0.44335571  0.65025043  0.68605450    -0.22400
C762        C  0.43169570  0.61494320  0.17413299     0.12200
S763        S  0.40031751  0.55095359  0.15820807    -0.06000
C764        C  0.43893032  0.57368587  0.16549455    -0.09500
C765        C  0.45694797  0.60980128  0.67471451    -0.26100
S766        S  0.42224930  0.68999415  0.69105888    -0.03300
C767        C  0.37608265  0.66171245  0.16984297    -0.16700
C768        C  0.36250666  0.62800163  0.16435388    -0.14700
H769        H  0.35523438  0.56740759  0.15579097     0.20600
H770        H  0.46597208  0.67131044  0.68525754     0.16700
H771        H  0.48052008  0.62698376  0.67133082     0.19200
H772        H  0.33854190  0.60975573  0.15795301     0.12500
C773        C  0.44205720  0.86361344  0.12543722     0.16400
C774        C  0.43823845  0.83345933  0.12757146    -0.32600
C775        C  0.41154785  0.80890544  0.14342262     0.20800
C776        C  0.38956452  0.81407591  0.15646622     0.03000
C777        C  0.39371558  0.84456281  0.15556761    -0.22400
C778        C  0.42049382  0.86917616  0.13977972     0.12200
S779        S  0.47231528  0.89590880  0.10519904    -0.06000
C780        C  0.45619884  0.91754138  0.11723938    -0.09500
C781        C  0.42864144  0.90030536  0.13564575    -0.26100
S782        S  0.35791870  0.78037687  0.17128202    -0.03300
C783        C  0.37472032  0.75928790  0.16050301    -0.16700
C784        C  0.40334029  0.77763739  0.14631940    -0.14700
H785        H  0.45510118  0.82915371  0.11659285     0.20600
H786        H  0.37667254  0.84872182  0.16592192     0.16700
H787        H  0.41524891  0.90994654  0.14508667     0.19200
H788        H  0.41703115  0.76834045  0.13725159     0.12500
C789        C  0.23039498  0.63737351  0.17606587     0.16400
C790        C  0.20234481  0.63240464  0.18010748    -0.32600
C791        C  0.17759434  0.60007707  0.17860199     0.20800
C792        C  0.18058171  0.57380833  0.17354554     0.03000
C793        C  0.20873353  0.57881253  0.16978398    -0.22400
C794        C  0.23353130  0.61120328  0.17102901     0.12200
S795        S  0.26292874  0.67471161  0.17647869    -0.06000
C796        C  0.28117388  0.65503346  0.17004100    -0.09500
C797        C  0.26273416  0.62119467  0.16752976    -0.26100
S798        S  0.14743407  0.53626605  0.16887656    -0.03300
C799        C  0.12943363  0.55624272  0.17293384    -0.16700
C800        C  0.14832855  0.59018031  0.17875946    -0.14700
H801        H  0.19986386  0.65279538  0.18361819     0.20600
H802        H  0.21113061  0.55836060  0.16537874     0.16700
H803        H  0.27026464  0.60487007  0.16354460     0.19200
H804        H  0.14091741  0.60656155  0.17944552     0.12500
C805        C  0.32210206  0.68107821  0.68804450     0.80700
N806        N  0.33717745  0.66651284  0.69072564    -0.77600
C807        C  0.36751668  0.68437421  0.69002841     0.83100
N808        N  0.38261422  0.71683432  0.68610518    -0.77600
C809        C  0.36754938  0.73140918  0.68325706     0.83200
N810        N  0.33744739  0.71340166  0.68444485    -0.79300
C811        C  0.31940544  0.67964694  0.81443332     0.80700
N812        N  0.33360885  0.66409532  0.81727078    -0.77600
C813        C  0.36387620  0.68113517  0.81896932     0.83100
N814        N  0.37983667  0.71361074  0.81727367    -0.77600
C815        C  0.36616452  0.72944737  0.81375629     0.83200
N816        N  0.33574329  0.71247678  0.81236619    -0.79300
C817        C  0.20673181  0.85789325  0.54758050     0.80700
N818        N  0.18932932  0.82592743  0.55309105    -0.77600
C819        C  0.15950858  0.81103544  0.55588014     0.83100
N820        N  0.14698919  0.82825384  0.55266206    -0.77600
C821        C  0.16431753  0.86036372  0.54716135     0.83200
N822        N  0.19418724  0.87508911  0.54478325    -0.79300
C823        C  0.21345349  0.86870385  0.92022424     0.80700
N824        N  0.19704389  0.83657373  0.92600798    -0.77600
C825        C  0.16695264  0.82037517  0.92748932     0.83100
N826        N  0.15341798  0.83625967  0.92262628    -0.77600
C827        C  0.16948064  0.86820643  0.91712947     0.83200
N828        N  0.19962819  0.88456676  0.91620042    -0.79300
C829        C  0.10410470  0.54642110  0.65524041     0.76900
Tb830      Tb  0.47928543  0.52346416  0.60715041     1.80700
O831        O  0.08589135  0.51576449  0.65170465    -0.51100
O832        O  0.04675948  0.96613905  0.59446197    -0.58600
C833        C  0.04965690  0.58081525  0.59169934     0.92700
O834        O  0.44515105  0.52893068  0.65273652    -0.58100
Tb835      Tb  0.04571987  0.51217050  0.60842653     1.78100
O836        O  0.43481062  0.97157558  0.57499344    -0.58600
O837        O  0.99827349  0.96781248  0.58673904    -0.77400
O838        O  0.06128722  0.56459937  0.59418794    -0.76700
O839        O  0.03072792  0.51435856  0.53109414    -0.62000
C840        C  0.47836593  0.95809442  0.62482585     0.92300
O841        O  0.50406214  0.53617398  0.68510170    -0.73900
C842        C  0.42208282  0.48352102  0.55626709     0.75800
C843        C  0.06259317  0.97157236  0.55940465     0.76700
O844        O  0.09255642  0.56031206  0.63976730    -0.59200
O845        O  0.06971415  0.99736941  0.54331603    -0.51100
O846        O  0.99140335  0.51873671  0.53538096    -0.77200
O847        O  0.03177914  0.51358995  0.68760437    -0.61200
C848        C  0.01969978  0.52615207  0.71196085     0.90500
C849        C  0.01025634  0.51615598  0.51173490     0.91800
C850        C  0.45698896  0.55902399  0.65257911     0.76100
O851        O  0.43863809  0.51419885  0.55813577    -0.50500
O852        O  0.48097304  0.57210304  0.63260114    -0.51700
O853        O  0.47038810  0.97674543  0.64238993    -0.64500
O854        O  0.02237812  0.56950122  0.59701720    -0.65600
C855        C  0.10365826  0.55975322  0.81651214     0.76900
Tb856      Tb  0.48200244  0.52970427  0.85498797     1.80700
O857        O  0.08899922  0.57087203  0.83435338    -0.51100
O858        O  0.05452223  0.97404675  0.86278321    -0.58600
C859        C  0.05154778  0.58715466  0.91451668     0.92700
O860        O  0.48154541  0.57633306  0.84820703    -0.58100
Tb861      Tb  0.05188800  0.52184269  0.86156571     1.78100
O862        O  0.43747270  0.98308962  0.86955472    -0.58600
O863        O  0.00754524  0.96971772  0.83375525    -0.77400
O864        O  0.06390229  0.57169780  0.90573269    -0.76700
O865        O  0.03059899  0.51218383  0.78279967    -0.62000
C866        C  0.48347036  0.96312280  0.81465599     0.92300
O867        O  0.49348335  0.52363425  0.93264606    -0.73900
C868        C  0.42661299  0.49582959  0.89246421     0.75800
C869        C  0.07802482  0.98884066  0.89198642     0.76700
O870        O  0.09101318  0.52945927  0.81673136    -0.59200
O871        O  0.08874258  0.01893285  0.90460631    -0.51100
O872        O  0.01182111  0.54253110  0.79055193    -0.77200
O873        O  0.03545443  0.52056081  0.93836168    -0.61200
C874        C  0.01268188  0.51738397  0.95654376     0.90500
C875        C  0.02115187  0.52745584  0.76477730     0.91800
C876        C  0.45772208  0.56158568  0.81969338     0.76100
O877        O  0.44461207  0.52663677  0.90123781    -0.50500
O878        O  0.44717078  0.53164679  0.80585007    -0.51700
O879        O  0.47164947  0.97933842  0.81713235    -0.64500
O880        O  0.02410916  0.57500095  0.90154193    -0.65600
C881        C  0.11171226  0.67851067  0.95113748     0.16400
C882        C  0.13858525  0.70954628  0.95289040    -0.32600
C883        C  0.13633681  0.73581042  0.94653674     0.20800
C884        C  0.10864147  0.73143901  0.94046312     0.03000
C885        C  0.08200470  0.70085906  0.94047544    -0.22400
C886        C  0.08419011  0.67453330  0.94524033     0.12200
S887        S  0.10917459  0.64242179  0.94840240    -0.06000
C888        C  0.07073298  0.62196759  0.93718723    -0.09500
C889        C  0.06065212  0.64234019  0.93861064    -0.26100
S890        S  0.11003993  0.76528837  0.93051212    -0.03300
C891        C  0.14844489  0.78586164  0.93407217    -0.16700
C892        C  0.15951059  0.76730693  0.94311365    -0.14700
H893        H  0.16010907  0.71268039  0.95627571     0.20600
H894        H  0.06045057  0.69738551  0.93444161     0.16700
H895        H  0.03756910  0.63401456  0.92971682     0.19200
H896        H  0.18300403  0.77619790  0.94632893     0.12500
C897        C  0.29651773  0.90277735  0.91323480     0.16400
C898        C  0.32450088  0.90740005  0.91030815    -0.32600
C899        C  0.34931410  0.93942443  0.90978851     0.20800
C900        C  0.34650155  0.96579496  0.91271467     0.03000
C901        C  0.31851656  0.96117504  0.91563419    -0.22400
C902        C  0.29364318  0.92906440  0.91549594     0.12200
S903        S  0.25613325  0.86113928  0.41450684    -0.06000
C904        C  0.24591105  0.88600269  0.91772577    -0.09500
C905        C  0.26460128  0.91956650  0.91792020    -0.26100
S906        S  0.37922581  0.00264392  0.91084153    -0.03300
C907        C  0.39662474  0.98208515  0.90473242    -0.16700
C908        C  0.37811919  0.94865146  0.90507254    -0.14700
H909        H  0.31897731  0.88099816  0.40979564     0.20600
H910        H  0.31620050  0.98167205  0.91760302     0.16700
H911        H  0.25737900  0.93618329  0.92017503     0.19200
H912        H  0.37781026  0.92524444  0.40350985     0.12500
C913        C  0.12865915  0.96003610  0.91636229     0.16400
C914        C  0.15315380  0.95745353  0.92119790    -0.32200
C915        C  0.14715048  0.92577759  0.91511040     0.20800
C916        C  0.11801739  0.89795371  0.90554173     0.03000
C917        C  0.09357343  0.90051778  0.90022424    -0.22400
C918        C  0.09962266  0.93215687  0.90541204     0.12200
S919        S  0.13131665  0.99619783  0.92054009    -0.06000
C920        C  0.09309826  0.97345511  0.90555296    -0.09500
C921        C  0.07906326  0.93971797  0.89900846    -0.26100
S922        S  0.11521152  0.86180350  0.90155794    -0.03300
C923        C  0.15374233  0.88433599  0.91241898    -0.16700
C924        C  0.16788020  0.91810569  0.91849170    -0.14700
H925        H  0.17587715  0.97915860  0.92907690     0.20600
H926        H  0.07085039  0.87879829  0.89211842     0.16700
H927        H  0.05531509  0.92175111  0.88817281     0.19200
H928        H  0.19185559  0.93601132  0.92641874     0.12500
C929        C  0.10728135  0.66885292  0.57163769     0.16400
C930        C  0.13311284  0.69944383  0.56741081    -0.32600
C931        C  0.12989465  0.72553625  0.56569777     0.20800
C932        C  0.10226051  0.72134488  0.56753347     0.03000
C933        C  0.07645599  0.69074176  0.57107824    -0.22400
C934        C  0.07970666  0.66481202  0.57333109     0.12200
S935        S  0.10642423  0.63439777  0.57707641    -0.06000
C936        C  0.06855964  0.61464123  0.58213797    -0.09500
C937        C  0.05742092  0.63377603  0.57902167    -0.26100
S938        S  0.10297562  0.75596737  0.56536942    -0.03300
C939        C  0.14090678  0.77631862  0.56132988    -0.16700
C940        C  0.15224997  0.75715247  0.56222726    -0.14700
H941        H  0.15473019  0.70286027  0.56615211     0.20600
H942        H  0.05487733  0.68739132  0.57271093     0.16700
H943        H  0.03434102  0.62566587  0.58203790     0.19200
H944        H  0.17548696  0.76575571  0.55978189     0.12500
C945        C  0.28882815  0.88807585  0.54078265     0.16400
C946        C  0.31645567  0.89163783  0.53961296    -0.32600
C947        C  0.34185008  0.92312833  0.53802164     0.20800
C948        C  0.33975209  0.94976388  0.53720295     0.03000
C949        C  0.31215266  0.94613638  0.53786601    -0.22400
C950        C  0.28686293  0.91478049  0.53985783     0.12200
S951        S  0.25551553  0.85225216  0.54447382    -0.06000
C952        C  0.23889465  0.87360873  0.54454974    -0.09500
C953        C  0.25825201  0.90661572  0.54184721    -0.26100
S954        S  0.37270540  0.48437698  0.53209329    -0.03300
C955        C  0.39026174  0.96572630  0.54198233    -0.16700
C956        C  0.37093052  0.93214889  0.54045010    -0.14700
H957        H  0.31817520  0.87095287  0.54100454     0.20600
H958        H  0.31053132  0.96699643  0.53773040     0.16700
H959        H  0.25176730  0.92377455  0.54149583     0.19200
H960        H  0.37786445  0.91570988  0.54450567     0.12500
C961        C  0.14040006  0.91989042  0.54200676     0.16400
C962        C  0.13902394  0.94736495  0.54285113    -0.32600
C963        C  0.11054363  0.94191423  0.53918591     0.20800
C964        C  0.08455694  0.91050905  0.53488381     0.03000
C965        C  0.08594008  0.88298253  0.53307683    -0.22400
C966        C  0.11441638  0.88845596  0.53712447     0.12200
S967        S  0.17275474  0.92142915  0.54784509    -0.06000
C968        C  0.15103374  0.87927165  0.54396395    -0.09500
C969        C  0.12038076  0.86501543  0.53821463    -0.26100
S970        S  0.05236125  0.90944101  0.53692902    -0.03300
C971        C  0.07414286  0.95165258  0.54310415    -0.16700
C972        C  0.10462383  0.96561101  0.54290962    -0.14700
H973        H  0.15928879  0.97200261  0.54720308     0.20600
H974        H  0.06569818  0.85843689  0.53024280     0.16700
H975        H  0.10335091  0.83889037  0.53516232     0.19200
H976        H  0.12168554  0.99185333  0.54928184     0.12500
C977        C  0.41574827  0.65142506  0.81916920     0.16400
C978        C  0.44038783  0.64901188  0.81965412    -0.32600
C979        C  0.43453931  0.61746509  0.81308719     0.20800
C980        C  0.40544573  0.58949465  0.80573408     0.03000
C981        C  0.38073704  0.59191431  0.80520101    -0.22400
C982        C  0.38660835  0.62354932  0.81235496     0.12200
S983        S  0.41838260  0.68752345  0.82638654    -0.06000
C984        C  0.37977220  0.66493958  0.82002926    -0.09500
C985        C  0.36572506  0.63115525  0.81304910    -0.26100
S986        S  0.40317316  0.55351711  0.80050950    -0.03300
C987        C  0.44176350  0.57653683  0.80912923    -0.16700
C988        C  0.45552342  0.61018009  0.81523122    -0.14700
H989        H  0.46311286  0.67077399  0.82541500     0.20600
H990        H  0.35801537  0.57016704  0.79984953     0.16700
H991        H  0.34168395  0.61322672  0.80757497     0.19200
H992        H  0.47947066  0.62829659  0.82302920     0.12500
C993        C  0.42505225  0.81818819  0.79974289     0.16400
C994        C  0.45171472  0.84826221  0.79676065    -0.32600
C995        C  0.44979317  0.87491951  0.79297686     0.20800
C996        C  0.42243691  0.87154768  0.79065768     0.03000
C997        C  0.39563378  0.84120571  0.79258505    -0.22400
C998        C  0.39765370  0.81473344  0.79797069     0.12200
S999        S  0.42318308  0.78377177  0.80771984    -0.06000
C1000       C  0.38499268  0.76429158  0.80886486    -0.09500
C1001       C  0.37440211  0.78367542  0.80316802    -0.26100
S1002       S  0.42518337  0.90754609  0.79160929    -0.03300
C1003       C  0.46364938  0.92750798  0.79765373    -0.16700
C1004       C  0.47353934  0.90692266  0.79623681    -0.14700
H1005       H  0.47313150  0.85108715  0.79943760     0.20600
H1006       H  0.37435269  0.83869228  0.79194134     0.16700
H1007       H  0.35113904  0.77553696  0.80271750     0.19200
H1008       H  0.49681684  0.91514273  0.80175092     0.12500
C1009       C  0.18595900  0.62343773  0.80336020     0.16400
C1010       C  0.21507252  0.65208117  0.80648272    -0.32600
C1011       C  0.23921352  0.64849124  0.80772975     0.20800
C1012       C  0.23443884  0.61780515  0.80582460     0.03000
C1013       C  0.20552597  0.58934265  0.80191694    -0.22400
C1014       C  0.18157274  0.59290748  0.80062777     0.12200
S1015       S  0.15360072  0.62224119  0.80607570    -0.06000
C1016       C  0.13435295  0.58024403  0.80346948    -0.09500
C1017       C  0.15212867  0.56812482  0.79969463    -0.26100
S1018       S  0.26613705  0.61814826  0.80871320    -0.03300
C1019       C  0.28645510  0.66017864  0.81193218    -0.16700
C1020       C  0.26923671  0.67309899  0.81116041    -0.14700
H1021       H  0.21876140  0.67604730  0.80868491     0.20600
H1022       H  0.20185847  0.56541984  0.80053603     0.16700
H1023       H  0.14421125  0.54272041  0.80011883     0.19200
H1024       H  0.27814782  0.69892136  0.81275761     0.12500
C1025       C  0.40786870  0.59126368  0.68200569     0.16400
C1026       C  0.38383634  0.59479602  0.68591398    -0.32600
C1027       C  0.39024015  0.62661435  0.68918332     0.20800
C1028       C  0.41260087  0.64879435  0.17577136     0.03000
C1029       C  0.43737223  0.64651236  0.17952396    -0.22400
C1030       C  0.43691469  0.61841093  0.68198241     0.12200
S1031       S  0.40450626  0.55455622  0.67348287    -0.06000
C1032       C  0.44256387  0.57600337  0.66924196    -0.09500
C1033       C  0.45274371  0.60746433  0.17367540    -0.26100
S1034       S  0.41472427  0.68470038  0.17941607    -0.03300
C1035       C  0.38386787  0.66844830  0.69145733    -0.16700
C1036       C  0.36980529  0.63492630  0.69078020    -0.14700
H1037       H  0.36109257  0.57362042  0.68523690     0.20600
H1038       H  0.46004920  0.66833647  0.18551328     0.16700
H1039       H  0.47675510  0.62544860  0.17702431     0.19200
H1040       H  0.34586279  0.61746387  0.69038578     0.12500
C1041       C  0.45222353  0.87297810  0.65262864     0.16400
C1042       C  0.44925868  0.84362814  0.65833511    -0.32600
C1043       C  0.42088435  0.81715276  0.66620865     0.20800
C1044       C  0.39661082  0.81984690  0.66818877     0.03000
C1045       C  0.39972820  0.84938219  0.66355200    -0.22400
C1046       C  0.42808464  0.87586149  0.65586240     0.12200
S1047       S  0.48411654  0.90704480  0.63926681    -0.06000
C1048       C  0.46479743  0.92544135  0.63852495    -0.09500
C1049       C  0.43531675  0.90619764  0.64869966    -0.26100
S1050       S  0.36381521  0.78470487  0.67592139    -0.03300
C1051       C  0.38301014  0.76617191  0.67749258    -0.16700
C1052       C  0.41326675  0.78638013  0.67179347    -0.14700
H1053       H  0.46807037  0.84136082  0.65588978     0.20600
H1054       H  0.38079285  0.85148376  0.66522390     0.16700
H1055       H  0.41971534  0.91348656  0.64870583     0.19200
H1056       H  0.42873539  0.77892033  0.67134922     0.12500
C1057       C  0.23805465  0.64453862  0.68443965     0.16400
C1058       C  0.20983889  0.63955546  0.68247128    -0.32600
C1059       C  0.18475284  0.60730138  0.67939666     0.20800
C1060       C  0.18748947  0.58100643  0.67857070     0.03000
C1061       C  0.21587001  0.58601628  0.68076346    -0.22400
C1062       C  0.24108189  0.61843629  0.68358908     0.12200
S1063       S  0.27091795  0.68188308  0.68733307    -0.06000
C1064       C  0.28927394  0.66240789  0.68743856    -0.09500
C1065       C  0.27060189  0.62857945  0.68538499    -0.26100
S1066       S  0.15392157  0.54360224  0.67246315    -0.03300
C1067       C  0.13628295  0.56383290  0.67049746    -0.16700
C1068       C  0.15551450  0.59763554  0.67497627    -0.14700
H1069       H  0.20752161  0.65993819  0.68285871     0.20600
H1070       H  0.21817356  0.56559632  0.67983627     0.16700
H1071       H  0.27816349  0.61235287  0.68490751     0.19200
H1072       H  0.14846488  0.61414686  0.67280311     0.12500
C1073       C  0.81781880  0.17053964  0.15776796     0.80700
N1074       N  0.83253708  0.15565920  0.16125550    -0.77600
C1075       C  0.86307765  0.17374855  0.16405966     0.83100
N1076       N  0.87868958  0.20667497  0.16338248    -0.77600
C1077       C  0.86387552  0.22143602  0.16008247     0.83200
N1078       N  0.83365019  0.20323465  0.15735210    -0.79300
C1079       C  0.80937583  0.16116288  0.28356315     0.80700
N1080       N  0.82409296  0.14620922  0.28713378    -0.77600
C1081       C  0.85448954  0.16396260  0.28988272     0.83100
N1082       N  0.87001537  0.19653885  0.28862350    -0.77600
C1083       C  0.85575668  0.21176299  0.28494799     0.83200
N1084       N  0.82531497  0.19407801  0.28255406    -0.79300
C1085       C  0.69833304  0.35252019  0.03517042     0.80700
N1086       N  0.68094106  0.32042871  0.04030333    -0.77600
C1087       C  0.65126225  0.30566151  0.04474214     0.83100
N1088       N  0.63892159  0.32323498  0.04381607    -0.77600
C1089       C  0.65622315  0.35548073  0.03886977     0.83200
N1090       N  0.68592744  0.37001879  0.03469522    -0.79300
C1091       C  0.70589813  0.36310613  0.41007247     0.80700
N1092       N  0.68896962  0.33113381  0.41616140    -0.77600
C1093       C  0.65896928  0.31547895  0.41783804     0.83100
N1094       N  0.64587178  0.33179760  0.41274358    -0.77600
C1095       C  0.66249985  0.36372604  0.40669439     0.83200
N1096       N  0.69263924  0.37952921  0.40577521    -0.79300
C1097       C  0.60060682  0.04446157  0.13767812     0.76900
Tb1098     Tb  0.97617464  0.01557337  0.10174467     1.80700
O1099       O  0.58104706  0.01927953  0.15445014    -0.51100
O1100       O  0.54309278  0.46651571  0.10177769    -0.58600
C1101       C  0.54281920  0.07803308  0.09870668     0.92700
O1102       O  0.94370977  0.02149062  0.15140006    -0.58100
Tb1103     Tb  0.53984062  0.00983074  0.10560924     1.78100
O1104       O  0.92686000  0.46348790  0.06987195    -0.58600
O1105       O  0.49473653  0.46819754  0.08450188    -0.77400
O1106       O  0.55348627  0.06476243  0.11993638    -0.76700
O1107       O  0.53084356  0.01724358  0.02877470    -0.62000
C1108       C  0.97209084  0.44973672  0.11910346     0.92300
O1109       O  0.99579849  0.02385569  0.18238329    -0.73900
C1110       C  0.91758432  0.97850440  0.05471516     0.75800
C1111       C  0.55763488  0.47031711  0.06526611     0.76700
O1112       O  0.58989472  0.05327454  0.10747764    -0.59200
O1113       O  0.56456539  0.49548130  0.04730379    -0.51100
O1114       O  0.48819533  0.01528079  0.02728768    -0.77200
O1115       O  0.52269842  0.00546858  0.18248967    -0.61200
C1116       C  0.51017906  0.01765974  0.20618113     0.90500
C1117       C  0.51010179  0.01726366  0.00678964     0.91800
C1118       C  0.95414174  0.05087069  0.14755327     0.76100
O1119       O  0.93659723  0.00801397  0.05077691    -0.50500
O1120       O  0.97692589  0.06352462  0.12457250    -0.51700
O1121       O  0.96274640  0.46702016  0.13632159    -0.64500
O1122       O  0.51541584  0.06250075  0.08253249    -0.65600
C1123       C  0.59487932  0.04755914  0.30210030     0.76900
Tb1124     Tb  0.97766765  0.02067127  0.35024391     1.80700
O1125       O  0.58204025  0.06067335  0.32088039    -0.51100
O1126       O  0.54800635  0.46993968  0.36245916    -0.58600
C1127       C  0.54617974  0.08197835  0.40414582     0.92700
O1128       O  0.97686479  0.06583517  0.33462120    -0.58100
Tb1129     Tb  0.54432908  0.01403717  0.35275431     1.78100
O1130       O  0.93162812  0.47371715  0.38218433    -0.58600
O1131       O  0.49882537  0.46423545  0.32969134    -0.77400
O1132       O  0.55782136  0.06663377  0.38816516    -0.76700
O1133       O  0.51881407  0.00139788  0.27648183    -0.62000
C1134       C  0.97154590  0.44931520  0.32011310     0.92300
O1135       O  0.98993319  0.01670680  0.42961498    -0.73900
C1136       C  0.92272929  0.98847122  0.38861041     0.75800
C1137       C  0.57221992  0.48590634  0.39010795     0.76700
O1138       O  0.58086397  0.01732774  0.30395056    -0.59200
O1139       O  0.58262139  0.51601341  0.40076044    -0.51100
O1140       O  0.50032914  0.03211161  0.28462708    -0.77200
O1141       O  0.53177745  0.01584729  0.43239300    -0.61200
C1142       C  0.51165508  0.01662556  0.45455434     0.90500
C1143       C  0.50991611  0.01728977  0.25881258     0.91800
C1144       C  0.95228865  0.04941003  0.30778277     0.76100
O1145       O  0.94014333  0.01928240  0.39322955    -0.50500
O1146       O  0.94143993  0.01911901  0.29910050    -0.51700
O1147       O  0.96026394  0.46552808  0.33214169    -0.64500
O1148       O  0.51815579  0.06909333  0.40166969    -0.65600
C1149       C  0.60653723  0.17362244  0.43415504     0.16400
C1150       C  0.63270629  0.20466142  0.43353147    -0.32600
C1151       C  0.62972312  0.23099018  0.43343832     0.20800
C1152       C  0.60212826  0.22687772  0.43552574     0.03000
C1153       C  0.57615228  0.19610514  0.43816165    -0.22400
C1154       C  0.57899462  0.16958747  0.43667386     0.12200
S1155       S  0.60466056  0.13781395  0.42537668    -0.06000
C1156       C  0.56626784  0.11717306  0.42373416    -0.09500
C1157       C  0.55584620  0.13726419  0.43183803    -0.26100
S1158       S  0.60280349  0.26121836  0.43088860    -0.03300
C1159       C  0.64065671  0.28123992  0.42570115    -0.16700
C1160       C  0.65204579  0.26230630  0.42837077    -0.14700
H1161       H  0.65410391  0.20780079  0.43041913     0.20600
H1162       H  0.55450251  0.19264986  0.43858713     0.16700
H1163       H  0.53242438  0.12866431  0.42959543     0.19200
H1164       H  0.67517142  0.27069643  0.42530057     0.12500
C1165       C  0.78914287  0.39565449  0.41218301     0.16400
C1166       C  0.81709784  0.39984548  0.41416151    -0.32600
C1167       C  0.84259890  0.43179399  0.41581959     0.20800
C1168       C  0.84036796  0.45841820  0.41605908     0.03000
C1169       C  0.81244693  0.45423259  0.41422402    -0.22400
C1170       C  0.78695848  0.42227711  0.41211565     0.12200
S1171       S  0.75975844  0.36698794  0.89062152    -0.06000
C1172       C  0.73844725  0.37977353  0.40947498    -0.09500
C1173       C  0.75789549  0.41329675  0.41030351    -0.26100
S1174       S  0.87368867  0.49494792  0.41594803    -0.03300
C1175       C  0.89076672  0.47407376  0.41463082    -0.16700
C1176       C  0.87159534  0.44067214  0.41510182    -0.14700
H1177       H  0.82164697  0.38422352  0.88400870     0.20600
H1178       H  0.81064843  0.47496000  0.41393974     0.16700
H1179       H  0.75119010  0.43029260  0.41051258     0.19200
H1180       H  0.88132106  0.42740188  0.88533240     0.12500
C1181       C  0.62344621  0.45764141  0.41445458     0.16400
C1182       C  0.64783597  0.45470984  0.41838946    -0.32200
C1183       C  0.64163109  0.42286584  0.40943547     0.20800
C1184       C  0.61246297  0.39531356  0.39802422     0.03000
C1185       C  0.58825239  0.39825107  0.39396756    -0.22400
C1186       C  0.59445250  0.42991749  0.40209079     0.12200
S1187       S  0.62600698  0.49391691  0.42043638    -0.06000
C1188       C  0.58781229  0.47118292  0.40428807    -0.09500
C1189       C  0.57396467  0.43753355  0.39645340    -0.26100
S1190       S  0.60912120  0.35882261  0.39034269    -0.03300
C1191       C  0.64748437  0.38068637  0.40257675    -0.16700
C1192       C  0.66202456  0.41459547  0.41143641    -0.14700
H1193       H  0.67059178  0.47623271  0.42752539     0.20600
H1194       H  0.56552678  0.37673678  0.38431717     0.16700
H1195       H  0.55034878  0.41959903  0.38443891     0.19200
H1196       H  0.68598279  0.43209663  0.42072432     0.12500
C1197       C  0.60094863  0.16632107  0.07799061     0.16400
C1198       C  0.62653222  0.19659818  0.07141969    -0.32600
C1199       C  0.62258896  0.22141115  0.06288844     0.20800
C1200       C  0.59451017  0.21628269  0.06055639     0.03000
C1201       C  0.56894805  0.18587542  0.06595573    -0.22400
C1202       C  0.57289675  0.16123744  0.07487817     0.12200
S1203       S  0.60072338  0.13328426  0.09094454    -0.06000
C1204       C  0.56239175  0.11255273  0.09176368    -0.09500
C1205       C  0.55077325  0.13047423  0.08229688    -0.26100
S1206       S  0.59448938  0.24975511  0.05194680    -0.03300
C1207       C  0.63276200  0.27095053  0.05099170    -0.16700
C1208       C  0.64465458  0.25274564  0.05706671    -0.14700
H1209       H  0.64850388  0.20079747  0.07359945     0.20600
H1210       H  0.54698655  0.18175517  0.06409083     0.16700
H1211       H  0.52725610  0.12147556  0.08118114     0.19200
H1212       H  0.66819355  0.26201912  0.05765864     0.12500
C1213       C  0.78038226  0.38235531  0.02676994     0.16400
C1214       C  0.80789066  0.38557760  0.02550964    -0.32600
C1215       C  0.83388894  0.41741419  0.02914418     0.20800
C1216       C  0.83246596  0.44474191  0.03334010     0.03000
C1217       C  0.80497966  0.44149423  0.03403794    -0.22400
C1218       C  0.77906494  0.40974001  0.03084303     0.12200
S1219       S  0.74650191  0.34613153  0.02576303    -0.06000
C1220       C  0.73047501  0.36819518  0.03104917    -0.09500
C1221       C  0.75044390  0.40175029  0.03289780    -0.26100
S1222       S  0.86947090  0.98300429  0.03375427    -0.03300
C1223       C  0.88284943  0.45974829  0.03869247    -0.16700
C1224       C  0.86287252  0.42589649  0.03215699    -0.14700
H1225       H  0.80904166  0.36428326  0.02312865     0.20600
H1226       H  0.80389847  0.46288401  0.03794909     0.16700
H1227       H  0.74444655  0.41945509  0.03662540     0.19200
H1228       H  0.86920759  0.40861633  0.03238661     0.12500
C1229       C  0.63238657  0.41534759  0.03636085     0.16400
C1230       C  0.63090583  0.44259837  0.03500589    -0.32600
C1231       C  0.60283867  0.43789058  0.03789324     0.20800
C1232       C  0.57742103  0.40748351  0.04236340     0.03000
C1233       C  0.57877986  0.38008867  0.04251082    -0.22400
C1234       C  0.60680862  0.38476871  0.03946945     0.12200
S1235       S  0.66447144  0.41619851  0.03548940    -0.06000
C1236       C  0.64307712  0.37474255  0.03835532    -0.09500
C1237       C  0.61278242  0.36134696  0.04048584    -0.26100
S1238       S  0.54635840  0.40774588  0.05189223    -0.03300
C1239       C  0.56771874  0.44905794  0.04886396    -0.16700
C1240       C  0.59719583  0.46176122  0.04044253    -0.14700
H1241       H  0.65086103  0.46657318  0.03279840     0.20600
H1242       H  0.55901083  0.35636338  0.04634935     0.16700
H1243       H  0.59601306  0.33584395  0.04288645     0.19200
H1244       H  0.61412923  0.48756842  0.04023800     0.12500
C1245       C  0.90789077  0.13638247  0.29761358     0.16400
C1246       C  0.93290061  0.13461458  0.29943004    -0.32600
C1247       C  0.92763112  0.10336060  0.29511750     0.20800
C1248       C  0.89874928  0.07507471  0.28922056     0.03000
C1249       C  0.87369183  0.07685238  0.28751609    -0.22400
C1250       C  0.87897013  0.10817100  0.29183783     0.12200
S1251       S  0.90972730  0.17196002  0.30097132    -0.06000
C1252       C  0.87107114  0.14864602  0.29375368    -0.09500
C1253       C  0.85763464  0.11506348  0.28988022    -0.26100
S1254       S  0.89718232  0.03960108  0.28671444    -0.03300
C1255       C  0.93580440  0.06326052  0.29437070    -0.16700
C1256       C  0.94903998  0.09672484  0.29801330    -0.14700
H1257       H  0.95546287  0.15662562  0.30399721     0.20600
H1258       H  0.85113478  0.05484584  0.28302409     0.16700
H1259       H  0.83367235  0.09670736  0.28463122     0.19200
H1260       H  0.97294126  0.11524933  0.30493021     0.12500
C1261       C  0.91319615  0.30299285  0.28311534     0.16400
C1262       C  0.93945598  0.33398409  0.28313218    -0.32600
C1263       C  0.93719379  0.36095650  0.28893232     0.20800
C1264       C  0.90992692  0.35728636  0.29371905     0.03000
C1265       C  0.88343042  0.32607415  0.29255015    -0.22400
C1266       C  0.88578303  0.29904833  0.28753383     0.12200
S1267       S  0.91194136  0.26779033  0.27975333    -0.06000
C1268       C  0.87393806  0.24721517  0.28392616    -0.09500
C1269       C  0.86295831  0.26685390  0.28768053    -0.26100
S1270       S  0.91255633  0.39351580  0.30494438    -0.03300
C1271       C  0.95085703  0.41367751  0.30399873    -0.16700
C1272       C  0.96068244  0.39317579  0.29414510    -0.14700
H1273       H  0.96086223  0.33704549  0.28027605     0.20600
H1274       H  0.86217281  0.32311656  0.29692643     0.16700
H1275       H  0.83979466  0.25819493  0.29116712     0.19200
H1276       H  0.98395087  0.40139018  0.29379003     0.12500
C1277       C  0.67656729  0.10715735  0.27903538     0.16400
C1278       C  0.70566355  0.13489492  0.27760233    -0.32600
C1279       C  0.72940396  0.13066466  0.27871960     0.20800
C1280       C  0.72433066  0.10017171  0.28071040     0.03000
C1281       C  0.69532117  0.07246808  0.28135166    -0.22400
C1282       C  0.67170850  0.07672705  0.28054763     0.12200
S1283       S  0.64493953  0.10736034  0.28280063    -0.06000
C1284       C  0.62516244  0.06601741  0.28628975    -0.09500
C1285       C  0.64229844  0.05302692  0.28386158    -0.26100
S1286       S  0.75587603  0.10001554  0.28302108    -0.03300
C1287       C  0.77640415  0.14160315  0.28153167    -0.16700
C1288       C  0.75935725  0.15462863  0.27904126    -0.14700
H1289       H  0.70969636  0.15879571  0.27677418     0.20600
H1290       H  0.69137396  0.04871623  0.28325871     0.16700
H1291       H  0.63407532  0.02801360  0.28788898     0.19200
H1292       H  0.76838297  0.18022135  0.27786843     0.12500
C1293       C  0.90377153  0.08182741  0.16835994     0.16400
C1294       C  0.87946498  0.08496327  0.16828187    -0.32600
C1295       C  0.88576207  0.11658736  0.16956129     0.20800
C1296       C  0.92120787  0.15483877  0.68541592     0.03000
C1297       C  0.94563040  0.15186730  0.68280456    -0.22400
C1298       C  0.93293311  0.10918905  0.17036389     0.12200
S1299       S  0.90075125  0.04536878  0.16244873    -0.06000
C1300       C  0.93913922  0.06730071  0.16245539    -0.09500
C1301       C  0.95999054  0.11186352  0.67193645    -0.26100
S1302       S  0.92373973  0.19105484  0.69096016    -0.03300
C1303       C  0.87931635  0.15796281  0.16758607    -0.16700
C1304       C  0.86517374  0.12453150  0.16753186    -0.14700
H1305       H  0.85665419  0.06364651  0.16611313     0.20600
H1306       H  0.96834429  0.17334046  0.68481478     0.16700
H1307       H  0.98388222  0.12936498  0.67177384     0.19200
H1308       H  0.84114770  0.10694357  0.16548690     0.12500
C1309       C  0.94872938  0.36569310  0.14685636     0.16400
C1310       C  0.94617607  0.33629020  0.15024092    -0.32600
C1311       C  0.91782701  0.30913229  0.15644666     0.20800
C1312       C  0.89341650  0.31149550  0.16036150     0.03000
C1313       C  0.89626511  0.34118415  0.15907768    -0.22400
C1314       C  0.92435645  0.36804962  0.15168400     0.12200
S1315       S  0.97992241  0.39997194  0.13246384    -0.06000
C1316       C  0.95975820  0.41741027  0.13275880    -0.09500
C1317       C  0.93074027  0.39797338  0.14462682    -0.26100
S1318       S  0.86044835  0.27547065  0.16353989    -0.03300
C1319       C  0.87967749  0.25687831  0.16016619    -0.16700
C1320       C  0.91012971  0.27774131  0.15678663    -0.14700
H1321       H  0.96503635  0.33426075  0.14591865     0.20600
H1322       H  0.87711764  0.34285993  0.16149787     0.16700
H1323       H  0.91473487  0.40470834  0.14536222     0.19200
H1324       H  0.92556117  0.27025144  0.15370386     0.12500
C1325       C  0.73452860  0.13658642  0.14963352     0.16400
C1326       C  0.70692248  0.13287878  0.14603364    -0.32600
C1327       C  0.68143165  0.10197465  0.14912148     0.20800
C1328       C  0.68314933  0.07575073  0.15577452     0.03000
C1329       C  0.71093783  0.07941505  0.15901134    -0.22400
C1330       C  0.73661046  0.11050500  0.15568066     0.12200
S1331       S  0.76774174  0.17245768  0.14749118    -0.06000
C1332       C  0.78503454  0.15243114  0.15473326    -0.09500
C1333       C  0.76578116  0.11944820  0.15841029    -0.26100
S1334       S  0.64911702  0.04006542  0.15769779    -0.03300
C1335       C  0.63284929  0.06099318  0.14895822    -0.16700
C1336       C  0.65267594  0.09361070  0.14489948    -0.14700
H1337       H  0.70537498  0.15322737  0.14094838     0.20600
H1338       H  0.71247988  0.05905817  0.16402800     0.16700
H1339       H  0.77274323  0.10320177  0.16364950     0.19200
H1340       H  0.64627500  0.11007037  0.13780695     0.12500
C1341       C  0.82276292  0.18058137  0.68546918     0.80700
N1342       N  0.83792045  0.16599319  0.68708216    -0.77600
C1343       C  0.86844828  0.18437534  0.68854247     0.83100
N1344       N  0.88355698  0.21725251  0.68777941    -0.77600
C1345       C  0.86837490  0.23173948  0.68593646     0.83200
N1346       N  0.83817901  0.21328947  0.68501826    -0.79300
C1347       C  0.82205944  0.17415771  0.80938831     0.80700
N1348       N  0.83670495  0.15904612  0.81199694    -0.77600
C1349       C  0.86717048  0.17703655  0.81635951     0.83100
N1350       N  0.88274775  0.20990402  0.81738459    -0.77600
C1351       C  0.86846081  0.22513827  0.81397796     0.83200
N1352       N  0.83803859  0.20723631  0.81011215    -0.79300
C1353       C  0.70537089  0.35537648  0.53814430     0.80700
N1354       N  0.68776817  0.32380865  0.54530336    -0.77600
C1355       C  0.65804482  0.30945893  0.54842619     0.83100
N1356       N  0.64578526  0.32679560  0.54382000    -0.77600
C1357       C  0.66331308  0.35851616  0.53646476     0.83200
N1358       N  0.69311258  0.37274005  0.53393405    -0.79300
C1359       C  0.71206381  0.37317218  0.90684793     0.80700
N1360       N  0.69496507  0.34062274  0.90995500    -0.77600
C1361       C  0.66510671  0.32511474  0.91298416     0.83100
N1362       N  0.65239255  0.34207531  0.91229670    -0.77600
C1363       C  0.66900467  0.37443389  0.90931607     0.83200
N1364       N  0.69908958  0.39027143  0.90696957    -0.79300
C1365       C  0.60469402  0.04723029  0.65384221     0.76900
Tb1366     Tb  0.98043304  0.02282131  0.60886251     1.80700
O1367       O  0.58667050  0.01650380  0.64955936    -0.51100
O1368       O  0.54682691  0.46631507  0.59619591    -0.58600
C1369       C  0.54892480  0.07992369  0.58482651     0.92700
O1370       O  0.94850930  0.03113229  0.65603470    -0.58100
Tb1371     Tb  0.54675865  0.01256838  0.60516361     1.78100
O1372       O  0.93495106  0.47165877  0.58256202    -0.58600
O1373       O  0.49757408  0.46875958  0.58738538    -0.77400
O1374       O  0.56093471  0.06411101  0.58801948    -0.76700
O1375       O  0.53332276  0.01551965  0.52723538    -0.62000
C1376       C  0.97774293  0.45817554  0.62916679     0.92300
O1377       O  0.00768325  0.03611630  0.68570551    -0.73900
C1378       C  0.92243090  0.98447976  0.56050858     0.75800
C1379       C  0.56430336  0.47290458  0.56344440     0.76700
O1380       O  0.59308443  0.06105834  0.63835565    -0.59200
O1381       O  0.57242661  0.49947585  0.54907954    -0.51100
O1382       O  0.49242247  0.01714618  0.53006962    -0.77200
O1383       O  0.53260047  0.01449508  0.68427429    -0.61200
C1384       C  0.51946899  0.02616813  0.70755480     0.90500
C1385       C  0.51226165  0.01602537  0.50711392     0.91800
C1386       C  0.96052585  0.06095039  0.65315792     0.76100
O1387       O  0.93943357  0.01514658  0.56342330    -0.50500
O1388       O  0.98424894  0.07291393  0.63251122    -0.51700
O1389       O  0.97040287  0.47720590  0.64772745    -0.64500
O1390       O  0.52169955  0.06851871  0.59045415    -0.65600
C1391       C  0.60747717  0.06324823  0.81966228     0.76900
Tb1392     Tb  0.98562785  0.02691208  0.85010211     1.80700
O1393       O  0.59463531  0.07597233  0.83984038    -0.51100
O1394       O  0.55231490  0.47901496  0.87137868    -0.58600
C1395       C  0.55124748  0.09234445  0.90894284     0.92700
O1396       O  0.98576824  0.07421902  0.84767430    -0.58100
Tb1397     Tb  0.55393980  0.02702085  0.86147672     1.78100
O1398       O  0.93665669  0.47966893  0.86824590    -0.58600
O1399       O  0.50694378  0.47478901  0.83389855    -0.77400
O1400       O  0.56411705  0.07768677  0.89804543    -0.76700
O1401       O  0.53468859  0.01832746  0.78115346    -0.62000
C1402       C  0.98010458  0.45941041  0.81625338     0.92300
O1403       O  0.99428125  0.01776139  0.92727574    -0.73900
C1404       C  0.92771460  0.99310601  0.87979705     0.75800
C1405       C  0.57644644  0.49453761  0.89924505     0.76700
O1406       O  0.59253719  0.03241812  0.81663462    -0.59200
O1407       O  0.58766714  0.52486986  0.90933498    -0.51100
O1408       O  0.50639626  0.03856247  0.78343966    -0.77200
O1409       O  0.53474278  0.02317449  0.93654985    -0.61200
C1410       C  0.51275123  0.02145710  0.95566383     0.90500
C1411       C  0.52067093  0.02828066  0.76068938     0.91800
C1412       C  0.96531167  0.06184096  0.81293794     0.76100
O1413       O  0.94641612  0.02370555  0.89077241    -0.50500
O1414       O  0.95652146  0.03301460  0.79405522    -0.51700
O1415       O  0.97002206  0.47682533  0.81119780    -0.64500
O1416       O  0.52327724  0.07890725  0.90047490    -0.65600
C1417       C  0.61060666  0.18402264  0.93759537     0.16400
C1418       C  0.63712767  0.21480315  0.93703217    -0.32600
C1419       C  0.63445224  0.24067760  0.93062820     0.20800
C1420       C  0.60669977  0.23634094  0.92656355     0.03000
C1421       C  0.58027652  0.20582726  0.92843120    -0.22400
C1422       C  0.58289506  0.17975952  0.93341107     0.12200
S1423       S  0.60878786  0.14852775  0.93650146    -0.06000
C1424       C  0.57027507  0.12762872  0.92843801    -0.09500
C1425       C  0.55964782  0.14752030  0.92928007    -0.26100
S1426       S  0.60794828  0.27027815  0.91733451    -0.03300
C1427       C  0.64628386  0.29049485  0.91840371    -0.16700
C1428       C  0.65739144  0.27185964  0.92599835    -0.14700
H1429       H  0.65873715  0.21805802  0.93911914     0.20600
H1430       H  0.55858365  0.20223782  0.92404003     0.16700
H1431       H  0.53629419  0.13867911  0.92203540     0.19200
H1432       H  0.68085857  0.28061310  0.92800229     0.12500
C1433       C  0.79415938  0.40318173  0.89886173     0.16400
C1434       C  0.82123985  0.40586152  0.89419965    -0.32600
C1435       C  0.84770004  0.43748420  0.90265018     0.20800
C1436       C  0.84727637  0.46524448  0.91553928     0.03000
C1437       C  0.82016383  0.46255661  0.92024111    -0.22400
C1438       C  0.79364666  0.43091519  0.91128590     0.12200
S1439       S  0.75556415  0.35894512  0.40997281    -0.06000
C1440       C  0.74442397  0.38938204  0.90408508    -0.09500
C1441       C  0.76507033  0.42315736  0.91401146    -0.26100
S1442       S  0.88170470  0.50147495  0.92216973    -0.03300
C1443       C  0.89665276  0.47895316  0.90640645    -0.16700
C1444       C  0.87604170  0.44521113  0.89744314    -0.14700
H1445       H  0.81887787  0.37907643  0.41404712     0.20600
H1446       H  0.81974373  0.48420571  0.93010621     0.16700
H1447       H  0.75954638  0.44098761  0.92394346     0.19200
H1448       H  0.87830571  0.42359145  0.41244449     0.12500
C1449       C  0.62818851  0.46681417  0.91939154     0.16400
C1450       C  0.65283581  0.46428137  0.92007567    -0.32200
C1451       C  0.64688754  0.43265230  0.91483294     0.20800
C1452       C  0.61770637  0.40494253  0.91028879     0.03000
C1453       C  0.59311489  0.40744643  0.90947384    -0.22400
C1454       C  0.59904041  0.43895181  0.91346332     0.12200
S1455       S  0.63061247  0.50273279  0.92197387    -0.06000
C1456       C  0.59204960  0.47980890  0.91301275    -0.09500
C1457       C  0.57812287  0.44624965  0.90967495    -0.26100
S1458       S  0.61493657  0.36888457  0.90557928    -0.03300
C1459       C  0.65353553  0.39116644  0.90913956    -0.16700
C1460       C  0.66770155  0.42488619  0.91374663    -0.14700
H1461       H  0.67557774  0.48594126  0.92369895     0.20600
H1462       H  0.57035228  0.38574431  0.90514469     0.16700
H1463       H  0.55414217  0.42813145  0.90231402     0.19200
H1464       H  0.69175675  0.44265592  0.91711342     0.12500
C1465       C  0.60545412  0.16744532  0.56308854     0.16400
C1466       C  0.63114207  0.19792096  0.55843885    -0.32600
C1467       C  0.62814509  0.22429408  0.55919025     0.20800
C1468       C  0.60086700  0.22059978  0.56390717     0.03000
C1469       C  0.57514734  0.19009141  0.56819135    -0.22400
C1470       C  0.57819666  0.16379938  0.56779587     0.12200
S1471       S  0.60460477  0.13272913  0.56570988    -0.06000
C1472       C  0.56724372  0.11341456  0.57414197    -0.09500
C1473       C  0.55611387  0.13276098  0.57362221    -0.26100
S1474       S  0.60186768  0.25553609  0.56311427    -0.03300
C1475       C  0.63938310  0.27515330  0.55564141    -0.16700
C1476       C  0.65040602  0.25564222  0.55479927    -0.14700
H1477       H  0.65248671  0.20099807  0.55472065     0.20600
H1478       H  0.55382051  0.18702961  0.57200963     0.16700
H1479       H  0.53333176  0.12489783  0.57905540     0.19200
H1480       H  0.67329288  0.26371210  0.54984649     0.12500
C1481       C  0.78784426  0.38549147  0.53683207     0.16400
C1482       C  0.81572560  0.38942427  0.53879341    -0.32600
C1483       C  0.84135974  0.42132920  0.54019746     0.20800
C1484       C  0.83916326  0.44786462  0.53889934     0.03000
C1485       C  0.81140480  0.44385549  0.53634967    -0.22400
C1486       C  0.78595168  0.41222175  0.53564546     0.12200
S1487       S  0.75410329  0.34934852  0.53751437    -0.06000
C1488       C  0.73758250  0.37078683  0.53621820    -0.09500
C1489       C  0.75722799  0.40392894  0.53502846    -0.26100
S1490       S  0.87400315  0.98691680  0.53504215    -0.03300
C1491       C  0.88984143  0.46466393  0.54886564    -0.16700
C1492       C  0.87062746  0.43086968  0.54581183    -0.14700
H1493       H  0.81741001  0.36874246  0.54040608     0.20600
H1494       H  0.80975841  0.46467903  0.53600697     0.16700
H1495       H  0.75090114  0.42121028  0.53454659     0.19200
H1496       H  0.87763982  0.41455860  0.55030422     0.12500
C1497       C  0.64046199  0.41907450  0.53275022     0.16400
C1498       C  0.63949755  0.44694881  0.53583600    -0.32600
C1499       C  0.61128183  0.44216092  0.53637173     0.20800
C1500       C  0.58519250  0.41098529  0.53372774     0.03000
C1501       C  0.58610623  0.38307235  0.52921734    -0.22400
C1502       C  0.61430384  0.38789215  0.52927314     0.12200
S1503       S  0.67253386  0.41985723  0.53562037    -0.06000
C1504       C  0.65042882  0.37776438  0.53262477    -0.09500
C1505       C  0.61986951  0.36405360  0.52887449    -0.26100
S1506       S  0.55361017  0.41059508  0.54110845    -0.03300
C1507       C  0.57565918  0.45277183  0.54691326    -0.16700
C1508       C  0.60583395  0.46627527  0.54300603    -0.14700
H1509       H  0.65992587  0.47140617  0.53922627     0.20600
H1510       H  0.56580508  0.35875418  0.52785215     0.16700
H1511       H  0.60265579  0.33811783  0.52722093     0.19200
H1512       H  0.62310475  0.49244626  0.54821638     0.12500
C1513       C  0.92099931  0.14977228  0.82024492     0.16400
C1514       C  0.94620439  0.14834572  0.82279162    -0.32600
C1515       C  0.94149764  0.11740504  0.81082428     0.20800
C1516       C  0.91298411  0.08914496  0.79685080     0.03000
C1517       C  0.88775087  0.09056690  0.79449789    -0.22400
C1518       C  0.89243759  0.12152290  0.80661970     0.12200
S1519       S  0.92219506  0.18504756  0.83212040    -0.06000
C1520       C  0.88379294  0.16160229  0.81821754    -0.09500
C1521       C  0.87086179  0.12811109  0.80579200    -0.26100
S1522       S  0.91178843  0.05377418  0.78643573    -0.03300
C1523       C  0.95000482  0.07728955  0.80138466    -0.16700
C1524       C  0.96291039  0.11074070  0.81359946    -0.14700
H1525       H  0.96846535  0.17035010  0.83386846     0.20600
H1526       H  0.86547052  0.06852602  0.78384702     0.16700
H1527       H  0.84719291  0.10978299  0.79505712     0.19200
H1528       H  0.98635230  0.12889785  0.82644773     0.12500
C1529       C  0.92521339  0.31572865  0.80745378     0.16400
C1530       C  0.95128651  0.34646787  0.80586020    -0.32600
C1531       C  0.94812117  0.37191073  0.79939375     0.20800
C1532       C  0.92024066  0.36711903  0.79400314     0.03000
C1533       C  0.89391889  0.33600469  0.79478404    -0.22400
C1534       C  0.89713434  0.31048452  0.80205347     0.12200
S1535       S  0.92491787  0.28232101  0.81636564    -0.06000
C1536       C  0.88640663  0.26052793  0.81230759    -0.09500
C1537       C  0.87456334  0.27859357  0.80486268    -0.26100
S1538       S  0.92185149  0.40241982  0.79187290    -0.03300
C1539       C  0.96043973  0.42364790  0.80053114    -0.16700
C1540       C  0.97113124  0.40401421  0.80215031    -0.14700
H1541       H  0.97319117  0.35062580  0.81092764     0.20600
H1542       H  0.87205997  0.33207303  0.79113868     0.16700
H1543       H  0.85087155  0.26883231  0.80083378     0.19200
H1544       H  0.99455260  0.41306635  0.80924390     0.12500
C1545       C  0.69038563  0.12339799  0.80621235     0.16400
C1546       C  0.71997940  0.15099911  0.80963898    -0.32600
C1547       C  0.74283809  0.14548349  0.80621263     0.20800
C1548       C  0.73657349  0.11397136  0.79955442     0.03000
C1549       C  0.70700511  0.08641132  0.79538106    -0.22400
C1550       C  0.68419039  0.09191217  0.79883711     0.12200
S1551       S  0.65961219  0.12472349  0.81377801    -0.06000
C1552       C  0.63832702  0.08241499  0.80682692    -0.09500
C1553       C  0.65433354  0.06832217  0.79837178    -0.26100
S1554       S  0.76745105  0.11248377  0.79792657    -0.03300
C1555       C  0.78910736  0.15482882  0.80595890    -0.16700
C1556       C  0.77298191  0.16905769  0.80968891    -0.14700
H1557       H  0.72501712  0.17565928  0.81567921     0.20600
H1558       H  0.70201684  0.06176830  0.79035291     0.16700
H1559       H  0.64491341  0.04227618  0.79538979     0.19200
H1560       H  0.78279424  0.19525607  0.81508647     0.12500
C1561       C  0.91031355  0.09252036  0.67349182     0.16400
C1562       C  0.88596336  0.09550071  0.67622983    -0.32600
C1563       C  0.89210149  0.12724193  0.68222688     0.20800
C1564       C  0.91494106  0.14389683  0.17156787     0.03000
C1565       C  0.93924164  0.14082497  0.17242299    -0.22400
C1566       C  0.93947989  0.12005622  0.67671875     0.12200
S1567       S  0.90726305  0.05607357  0.66452123    -0.06000
C1568       C  0.94572495  0.07802712  0.66589985    -0.09500
C1569       C  0.95334426  0.10098800  0.16700400    -0.26100
S1570       S  0.91786346  0.17989534  0.17077125    -0.03300
C1571       C  0.88513633  0.16874894  0.68867033    -0.16700
C1572       C  0.87132960  0.13504986  0.68441504    -0.14700
H1573       H  0.86320476  0.07399007  0.67343754     0.20600
H1574       H  0.96199164  0.16202958  0.17324583     0.16700
H1575       H  0.97712047  0.11833621  0.16536457     0.19200
H1576       H  0.84733933  0.11714369  0.68205571     0.12500
C1577       C  0.95227828  0.37382288  0.65889496     0.16400
C1578       C  0.94977459  0.34493715  0.66596224    -0.32600
C1579       C  0.92139081  0.31812958  0.67288040     0.20800
C1580       C  0.89667052  0.32007911  0.67279980     0.03000
C1581       C  0.89930748  0.34918066  0.66688106    -0.22400
C1582       C  0.92767441  0.37597796  0.66000711     0.12200
S1583       S  0.98418684  0.40811582  0.64622370    -0.06000
C1584       C  0.96425647  0.42564391  0.64302280    -0.09500
C1585       C  0.93454793  0.40597651  0.65178309    -0.26100
S1586       S  0.86391746  0.28450294  0.67910248    -0.03300
C1587       C  0.88370638  0.26675308  0.68235913    -0.16700
C1588       C  0.91414444  0.28756833  0.67872909    -0.14700
H1589       H  0.96893048  0.34321656  0.66504957     0.20600
H1590       H  0.88001818  0.35068269  0.66682699     0.16700
H1591       H  0.91862536  0.41275624  0.65018060     0.19200
H1592       H  0.92993311  0.28057159  0.67932952     0.12500
C1593       C  0.73878536  0.14467210  0.68211170     0.16400
C1594       C  0.71073612  0.14011395  0.68240322    -0.32600
C1595       C  0.68543921  0.10786372  0.67825526     0.20800
C1596       C  0.68790416  0.08124859  0.67424625     0.03000
C1597       C  0.71606444  0.08582030  0.67389000    -0.22400
C1598       C  0.74145179  0.11818545  0.67786038     0.12200
S1599       S  0.77190208  0.18194414  0.68683495    -0.06000
C1600       C  0.78985387  0.16190121  0.68344366    -0.09500
C1601       C  0.77085020  0.12792717  0.67847598    -0.26100
S1602       S  0.65428089  0.04398719  0.66760312    -0.03300
C1603       C  0.63684707  0.06456671  0.66920787    -0.16700
C1604       C  0.65622459  0.09846889  0.67552217    -0.14700
H1605       H  0.70871203  0.16081751  0.68543335     0.20600
H1606       H  0.71807440  0.06510269  0.67045615     0.16700
H1607       H  0.77811458  0.11136410  0.67579544     0.19200
H1608       H  0.64928534  0.11523281  0.67551942     0.12500
C1609       C  0.82141018  0.67577963  0.16777558     0.80700
N1610       N  0.83596268  0.66061196  0.16948097    -0.77600
C1611       C  0.86641969  0.67840097  0.17048124     0.83100
N1612       N  0.88210121  0.71126885  0.16967411    -0.77600
C1613       C  0.86734378  0.72616550  0.16763548     0.83200
N1614       N  0.83724674  0.70833145  0.16678215    -0.79300
C1615       C  0.81154143  0.66492039  0.29096125     0.80700
N1616       N  0.82600299  0.64954040  0.29150180    -0.77600
C1617       C  0.85628515  0.66694417  0.29296630     0.83100
N1618       N  0.87203609  0.69978723  0.29338687    -0.77600
C1619       C  0.85797241  0.71549021  0.29220271     0.83200
N1620       N  0.82758067  0.69801081  0.29119657    -0.79300
C1621       C  0.70102164  0.85626369  0.03907323     0.80700
N1622       N  0.68415220  0.82423602  0.04476097    -0.77600
C1623       C  0.65459301  0.80911924  0.05009271     0.83100
N1624       N  0.64181222  0.82614976  0.04965889    -0.77600
C1625       C  0.65841759  0.85822817  0.04427511     0.83200
N1626       N  0.68812442  0.87334098  0.03897899    -0.79300
C1627       C  0.70739901  0.86273623  0.39847542     0.80700
N1628       N  0.69061277  0.83086645  0.40496944    -0.77600
C1629       C  0.66055870  0.81493488  0.40545179     0.83100
N1630       N  0.64724583  0.83083541  0.39885686    -0.77600
C1631       C  0.66365105  0.86262757  0.39229274     0.83200
N1632       N  0.69392298  0.87879398  0.39250591    -0.79300
C1633       C  0.60433377  0.54944717  0.14073293     0.76900
Tb1634     Tb  0.97208731  0.51307174  0.10579022     1.80700
O1635       O  0.58474843  0.52248281  0.15331732    -0.51100
O1636       O  0.53810908  0.96139919  0.10383460    -0.58600
C1637       C  0.54580362  0.58176431  0.10023689     0.92700
O1638       O  0.93940524  0.52021483  0.15240049    -0.58100
Tb1639     Tb  0.54393413  0.51447398  0.10565696     1.78100
O1640       O  0.92834006  0.96646714  0.07814132    -0.58600
O1641       O  0.49114964  0.96324687  0.08081087    -0.77400
O1642       O  0.55625510  0.56859752  0.12216028    -0.76700
O1643       O  0.53352990  0.52093383  0.02872143    -0.62000
C1644       C  0.98197086  0.95494360  0.13188765     0.92300
O1645       O  0.99194993  0.51946977  0.18547658    -0.73900
C1646       C  0.91489106  0.47692624  0.05419498     0.75800
C1647       C  0.55237358  0.96442837  0.06712320     0.76700
O1648       O  0.59379026  0.55998138  0.11341018    -0.59200
O1649       O  0.55935229  0.98919523  0.04806205    -0.51100
O1650       O  0.49062432  0.51853182  0.02823753    -0.77200
O1651       O  0.52657556  0.50976637  0.18212506    -0.61200
C1652       C  0.51437158  0.52225446  0.20606397     0.90500
C1653       C  0.51218653  0.52015721  0.00707011     0.91800
C1654       C  0.95222273  0.55044300  0.15176790     0.76100
O1655       O  0.93234851  0.50767553  0.05935229    -0.50500
O1656       O  0.97607490  0.56270286  0.13149883    -0.51700
O1657       O  0.96694248  0.96497246  0.11503180    -0.64500
O1658       O  0.51861044  0.56623781  0.08293627    -0.65600
C1659       C  0.59688384  0.54940850  0.30499032     0.76900
Tb1660     Tb  0.97533872  0.51935070  0.35975365     1.80700
O1661       O  0.58357634  0.56195234  0.32362900    -0.51100
O1662       O  0.54564928  0.96857348  0.36474576    -0.58600
C1663       C  0.54682507  0.58229850  0.40132097     0.92700
O1664       O  0.97361580  0.56451173  0.34828392    -0.58100
Tb1665     Tb  0.54529563  0.51459327  0.35225954     1.78100
O1666       O  0.93342256  0.97333770  0.36807024    -0.58600
O1667       O  0.49803302  0.96316921  0.33346311    -0.77400
O1668       O  0.55858842  0.56711067  0.38566701    -0.76700
O1669       O  0.52198455  0.50442435  0.27513513    -0.62000
C1670       C  0.97438931  0.95325615  0.31461088     0.92300
O1671       O  0.99328961  0.52433469  0.43978859    -0.73900
C1672       C  0.92158621  0.48957807  0.40235564     0.75800
C1673       C  0.57179338  0.98455008  0.38623780     0.76700
O1674       O  0.58303336  0.51899498  0.30550563    -0.59200
O1675       O  0.58366042  0.01506964  0.39406847    -0.51100
O1676       O  0.50512561  0.53664185  0.28505787    -0.77200
O1677       O  0.53177255  0.51617767  0.43089497    -0.61200
C1678       C  0.51108730  0.51614201  0.45215639     0.90500
C1679       C  0.51400011  0.52137514  0.25841336     0.91800
C1680       C  0.95028948  0.54879246  0.31846978     0.76100
O1681       O  0.93939333  0.52023907  0.40543827    -0.50500
O1682       O  0.94047001  0.51888738  0.30652288    -0.51700
O1683       O  0.96619264  0.97149254  0.30405108    -0.64500
O1684       O  0.51876178  0.56918773  0.39924512    -0.65600
C1685       C  0.60746822  0.67377928  0.42745514     0.16400
C1686       C  0.63388637  0.70462571  0.42661010    -0.32600
C1687       C  0.63107312  0.73081574  0.42328889     0.20800
C1688       C  0.60335971  0.72662257  0.42205383     0.03000
C1689       C  0.57716448  0.69611220  0.42438971    -0.22400
C1690       C  0.57987877  0.66985734  0.42664239     0.12200
S1691       S  0.60537169  0.63793658  0.42340202    -0.06000
C1692       C  0.56689368  0.61759978  0.41944177    -0.09500
C1693       C  0.55657900  0.63779409  0.42315423    -0.26100
S1694       S  0.60415265  0.76059892  0.41485414    -0.03300
C1695       C  0.64226011  0.78077102  0.41319419    -0.16700
C1696       C  0.65368340  0.76211222  0.41860151    -0.14700
H1697       H  0.65540090  0.70773401  0.42624808     0.20600
H1698       H  0.55549667  0.69267425  0.42233277     0.16700
H1699       H  0.53320572  0.62930181  0.41869245     0.19200
H1700       H  0.67703864  0.77073660  0.41807152     0.12500
C1701       C  0.79041842  0.89470070  0.40030915     0.16400
C1702       C  0.81821460  0.89852105  0.40104351    -0.32600
C1703       C  0.84380030  0.93035960  0.40241991     0.20800
C1704       C  0.84176351  0.95719262  0.40387231     0.03000
C1705       C  0.81402552  0.95335916  0.40311312    -0.22400
C1706       C  0.78845658  0.92152518  0.40098862     0.12200
S1707       S  0.76076138  0.86635495  0.90013710    -0.06000
C1708       C  0.73993239  0.87936154  0.39844047    -0.09500
C1709       C  0.75951021  0.91286825  0.39965568    -0.26100
S1710       S  0.87502863  0.99361352  0.40375137    -0.03300
C1711       C  0.89183190  0.97244083  0.40035858    -0.16700
C1712       C  0.87266529  0.93898740  0.40029254    -0.14700
H1713       H  0.82240458  0.88257563  0.88918610     0.20600
H1714       H  0.81242357  0.97425925  0.40358767     0.16700
H1715       H  0.75297597  0.93002562  0.40027575     0.19200
H1716       H  0.88189046  0.92536929  0.88023651     0.12500
C1717       C  0.62383406  0.95565881  0.39687622     0.16400
C1718       C  0.64825362  0.95268139  0.39668873    -0.32200
C1719       C  0.64195696  0.92083115  0.39010709     0.20800
C1720       C  0.61266350  0.89326702  0.38420945     0.03000
C1721       C  0.58831246  0.89621632  0.38367070    -0.22400
C1722       C  0.59459735  0.92797322  0.39009852     0.12200
S1723       S  0.62655965  0.99198422  0.40333005    -0.06000
C1724       C  0.58793848  0.96947504  0.39553196    -0.09500
C1725       C  0.57390493  0.93574841  0.38928694    -0.26100
S1726       S  0.60953479  0.85694796  0.38012597    -0.03300
C1727       C  0.64815065  0.87899803  0.38677896    -0.16700
C1728       C  0.66252879  0.91274702  0.39080347    -0.14700
H1729       H  0.67113006  0.97422439  0.40184869     0.20600
H1730       H  0.56544011  0.87467747  0.37885928     0.16700
H1731       H  0.54987100  0.91784569  0.38234790     0.19200
H1732       H  0.68662593  0.93044740  0.39648712     0.12500
C1733       C  0.60433039  0.67015799  0.08295460     0.16400
C1734       C  0.63011460  0.70054782  0.07761787    -0.32600
C1735       C  0.62627656  0.72529697  0.06851723     0.20800
C1736       C  0.59814662  0.72004544  0.06491757     0.03000
C1737       C  0.57243636  0.68957871  0.06912153    -0.22400
C1738       C  0.57625205  0.66495643  0.07821331     0.12200
S1739       S  0.60386854  0.63706602  0.09590442    -0.06000
C1740       C  0.56543719  0.61622071  0.09419497    -0.09500
C1741       C  0.55390515  0.63405495  0.08415257    -0.26100
S1742       S  0.59810849  0.75334613  0.05608277    -0.03300
C1743       C  0.63642172  0.77458224  0.05634160    -0.16700
C1744       C  0.64843420  0.75663920  0.06316865    -0.14700
H1745       H  0.65210080  0.70482869  0.08098022     0.20600
H1746       H  0.55045744  0.68536744  0.06606622     0.16700
H1747       H  0.53033800  0.62491461  0.08163243     0.19200
H1748       H  0.67203968  0.76609134  0.06464320     0.12500
C1749       C  0.78294252  0.88567754  0.03204344     0.16400
C1750       C  0.81031493  0.88861586  0.03348064    -0.32600
C1751       C  0.83635191  0.91987682  0.03349985     0.20800
C1752       C  0.83517734  0.94695676  0.03106447     0.03000
C1753       C  0.80772417  0.94401852  0.02964361    -0.22400
C1754       C  0.78168469  0.91279994  0.03064021     0.12200
S1755       S  0.74920586  0.85010534  0.03416068    -0.06000
C1756       C  0.73312721  0.87198837  0.03426536    -0.09500
C1757       C  0.75301583  0.90507285  0.03180843    -0.26100
S1758       S  0.86643207  0.48135495  0.04103783    -0.03300
C1759       C  0.88547704  0.96144125  0.03944184    -0.16700
C1760       C  0.86517042  0.92806306  0.03855701    -0.14700
H1761       H  0.81133742  0.86756402  0.03579994     0.20600
H1762       H  0.80677161  0.96525793  0.02882377     0.16700
H1763       H  0.74693374  0.92258897  0.03176088     0.19200
H1764       H  0.87120122  0.91100851  0.04379664     0.12500
C1765       C  0.63068602  0.91434486  0.04093971     0.16400
C1766       C  0.62755382  0.94025153  0.03775611    -0.32600
C1767       C  0.59902160  0.93410091  0.04122284     0.20800
C1768       C  0.57470688  0.90370666  0.04855980     0.03000
C1769       C  0.57768251  0.87754307  0.05069589    -0.22400
C1770       C  0.60619316  0.88361684  0.04653524     0.12200
S1771       S  0.66367675  0.91718748  0.03910916    -0.06000
C1772       C  0.64409537  0.87623079  0.04427600    -0.09500
C1773       C  0.61374719  0.86158906  0.04838546    -0.26100
S1774       S  0.54307476  0.90270939  0.05881798    -0.03300
C1775       C  0.56280260  0.94339837  0.05199066    -0.16700
C1776       C  0.59205682  0.95674245  0.04185575    -0.14700
H1777       H  0.64665385  0.96435617  0.03363107     0.20600
H1778       H  0.55883184  0.85378679  0.05663785     0.16700
H1779       H  0.59802018  0.83615964  0.05247878     0.19200
H1780       H  0.60809916  0.98241591  0.03928186     0.12500
C1781       C  0.90817803  0.63738355  0.30163947     0.16400
C1782       C  0.93273537  0.63509190  0.30724049    -0.32600
C1783       C  0.92694167  0.60361844  0.30296572     0.20800
C1784       C  0.89799111  0.57551217  0.29317195     0.03000
C1785       C  0.87331027  0.57779133  0.28759294    -0.22400
C1786       C  0.87912823  0.60942363  0.29229461     0.12200
S1787       S  0.91082451  0.67347054  0.30578950    -0.06000
C1788       C  0.87232682  0.65084736  0.29494118    -0.09500
C1789       C  0.85832548  0.61700797  0.28849322    -0.26100
S1790       S  0.89587010  0.53967162  0.29114629    -0.03300
C1791       C  0.93431197  0.56304445  0.30415944    -0.16700
C1792       C  0.94785571  0.59661803  0.30945788    -0.14700
H1793       H  0.95536388  0.65691156  0.31504082     0.20600
H1794       H  0.85065775  0.55597305  0.28023048     0.16700
H1795       H  0.83435199  0.59901508  0.28102808     0.19200
H1796       H  0.97159126  0.61493781  0.31951871     0.12500
C1797       C  0.91610782  0.80724005  0.29417986     0.16400
C1798       C  0.94268534  0.83833493  0.29755696    -0.32600
C1799       C  0.94038473  0.86481945  0.29496447     0.20800
C1800       C  0.91285586  0.86071200  0.28818606     0.03000
C1801       C  0.88600302  0.82926534  0.28415350    -0.22400
C1802       C  0.88832765  0.80263559  0.28787024     0.12200
S1803       S  0.91485332  0.77264696  0.29838947    -0.06000
C1804       C  0.87633046  0.75121142  0.29212490    -0.09500
C1805       C  0.86517058  0.77024232  0.28669042    -0.26100
S1806       S  0.91548893  0.89688871  0.28912204    -0.03300
C1807       C  0.95394942  0.91736524  0.30028845    -0.16700
C1808       C  0.96388364  0.89701546  0.30150518    -0.14700
H1809       H  0.96429555  0.84185669  0.30316554     0.20600
H1810       H  0.86439816  0.82584701  0.27956246     0.16700
H1811       H  0.84160375  0.76093646  0.28204261     0.19200
H1812       H  0.98710371  0.90544447  0.30914155     0.12500
C1813       C  0.67919305  0.61102544  0.29069554     0.16400
C1814       C  0.70853858  0.63922485  0.29508837    -0.32600
C1815       C  0.73198178  0.63467807  0.29157055     0.20800
C1816       C  0.72644261  0.60347431  0.28409618     0.03000
C1817       C  0.69715025  0.57533162  0.27924905    -0.22400
C1818       C  0.67375659  0.57987761  0.28267762     0.12200
S1819       S  0.64784591  0.61119412  0.29799133    -0.06000
C1820       C  0.62734576  0.56888714  0.29057425    -0.09500
C1821       C  0.64401043  0.55560198  0.28179552    -0.26100
S1822       S  0.75777456  0.60301929  0.28152539    -0.03300
C1823       C  0.77868121  0.64538240  0.28987328    -0.16700
C1824       C  0.76201019  0.65891695  0.29492640    -0.14700
H1825       H  0.71293499  0.66360953  0.30170702     0.20600
H1826       H  0.69280125  0.55096470  0.27355685     0.16700
H1827       H  0.63518030  0.52969699  0.27865954     0.19200
H1828       H  0.77132230  0.68501238  0.30052752     0.12500
C1829       C  0.90450696  0.58443687  0.17224173     0.16400
C1830       C  0.88075850  0.58838917  0.17203168    -0.32600
C1831       C  0.88780452  0.62020684  0.17287028     0.20800
C1832       C  0.91995890  0.65425058  0.67985502     0.03000
C1833       C  0.94437773  0.65137568  0.68355521    -0.22400
C1834       C  0.93391450  0.61117993  0.17344624     0.12200
S1835       S  0.90029828  0.54748477  0.16750178    -0.06000
C1836       C  0.93851401  0.56822662  0.16663848    -0.09500
C1837       C  0.95854038  0.61134478  0.67915925    -0.26100
S1838       S  0.92272687  0.69032726  0.68057964    -0.03300
C1839       C  0.88235685  0.66223673  0.17212800    -0.16700
C1840       C  0.86772414  0.62878033  0.17168434    -0.14700
H1841       H  0.85776131  0.56751609  0.17053918     0.20600
H1842       H  0.96723543  0.67284239  0.68759845     0.16700
H1843       H  0.98256556  0.62876781  0.68047241     0.19200
H1844       H  0.84366877  0.61161220  0.17049863     0.12500
C1845       C  0.95336984  0.87110064  0.16481058     0.16400
C1846       C  0.95041562  0.84217939  0.17247817    -0.32600
C1847       C  0.92134231  0.81395097  0.16890041     0.20800
C1848       C  0.89639508  0.81481880  0.15982086     0.03000
C1849       C  0.89934183  0.84383845  0.15293062    -0.22400
C1850       C  0.92840377  0.87178704  0.15480812     0.12200
S1851       S  0.98664735  0.90690001  0.16267367    -0.06000
C1852       C  0.96665922  0.92256185  0.14629771    -0.09500
C1853       C  0.93588303  0.90145911  0.14439535    -0.26100
S1854       S  0.86309038  0.77806471  0.15589699    -0.03300
C1855       C  0.88296292  0.76119158  0.16593856    -0.16700
C1856       C  0.91378206  0.78304430  0.17229129    -0.14700
H1857       H  0.96987192  0.84147532  0.17926172     0.20600
H1858       H  0.87989846  0.84431661  0.14478013     0.16700
H1859       H  0.91993923  0.90700475  0.13394875     0.19200
H1860       H  0.92965958  0.77671579  0.17904845     0.12500
C1861       C  0.73860036  0.64292582  0.16654095     0.16400
C1862       C  0.71107874  0.63951076  0.16586063    -0.32600
C1863       C  0.68525499  0.60768193  0.16127156     0.20800
C1864       C  0.68668600  0.58039382  0.15829343     0.03000
C1865       C  0.71434032  0.58382313  0.15873529    -0.22400
C1866       C  0.74025938  0.61575775  0.16269044     0.12200
S1867       S  0.77215166  0.67951917  0.17108256    -0.06000
C1868       C  0.78883900  0.65817054  0.16727629    -0.09500
C1869       C  0.76925524  0.62437824  0.16309018    -0.26100
S1870       S  0.65253886  0.54382928  0.15236504    -0.03300
C1871       C  0.63646684  0.56572733  0.15292907    -0.16700
C1872       C  0.65646063  0.59938973  0.15771683    -0.14700
H1873       H  0.70983999  0.66071238  0.16827626     0.20600
H1874       H  0.71557671  0.56260812  0.15585260     0.16700
H1875       H  0.77581567  0.60719628  0.16030232     0.19200
H1876       H  0.65021236  0.61672110  0.15734795     0.12500
C1877       C  0.82250708  0.68068571  0.66835405     0.80700
N1878       N  0.83726362  0.66567438  0.66977890    -0.77600
C1879       C  0.86762471  0.68342894  0.66932174     0.83100
N1880       N  0.88297933  0.71606208  0.66703878    -0.77600
C1881       C  0.86820109  0.73096970  0.66544610     0.83200
N1882       N  0.83814086  0.71322475  0.66641829    -0.79300
C1883       C  0.81925708  0.67257547  0.79230334     0.80700
N1884       N  0.83343646  0.65700653  0.79427353    -0.77600
C1885       C  0.86366620  0.67407673  0.79570888     0.83100
N1886       N  0.87968357  0.70667450  0.79453936    -0.77600
C1887       C  0.86593004  0.72253577  0.79212851     0.83200
N1888       N  0.83555694  0.70550706  0.79127144    -0.79300
C1889       C  0.70583485  0.85751164  0.52723933     0.80700
N1890       N  0.68880966  0.82586854  0.53462556    -0.77600
C1891       C  0.65891232  0.81055512  0.53682112     0.83100
N1892       N  0.64593724  0.82705628  0.53127882    -0.77600
C1893       C  0.66274456  0.85876313  0.52369377     0.83200
N1894       N  0.69276835  0.87398167  0.52186748    -0.79300
C1895       C  0.71336679  0.87409028  0.91220624     0.80700
N1896       N  0.69578454  0.84176603  0.91626385    -0.77600
C1897       C  0.66607197  0.82695762  0.92014598     0.83100
N1898       N  0.65387914  0.84452886  0.91933513    -0.77600
C1899       C  0.67104874  0.87684947  0.91540129     0.83200
N1900       N  0.70099324  0.89181268  0.91214791    -0.79300
C1901       C  0.60570768  0.55070319  0.64908773     0.76900
Tb1902     Tb  0.97929439  0.52296424  0.61572851     1.80700
O1903       O  0.58657467  0.52141727  0.65423761    -0.51100
O1904       O  0.54171121  0.96177881  0.58742661    -0.58600
C1905       C  0.54935978  0.58203039  0.58420697     0.92700
O1906       O  0.94709033  0.53076759  0.66300050    -0.58100
Tb1907     Tb  0.54715004  0.51441412  0.60390590     1.78100
O1908       O  0.93479088  0.97209721  0.57860544    -0.58600
O1909       O  0.49713337  0.96655393  0.59364140    -0.77400
O1910       O  0.56164459  0.56711814  0.59240605    -0.76700
O1911       O  0.53255719  0.51516740  0.52523333    -0.62000
C1912       C  0.98011157  0.95867500  0.61891346     0.92300
O1913       O  0.00472130  0.53554868  0.69285212    -0.73900
C1914       C  0.92180854  0.48355185  0.56566095     0.75800
C1915       C  0.56167562  0.97025143  0.55866480     0.76700
O1916       O  0.59516868  0.56280034  0.62522560    -0.59200
O1917       O  0.57357706  0.99938234  0.55143184    -0.51100
O1918       O  0.49235348  0.51814200  0.52764587    -0.77200
O1919       O  0.53207160  0.51538730  0.68248403    -0.61200
C1920       C  0.51895575  0.52712434  0.70561005     0.90500
C1921       C  0.51176330  0.51607414  0.50486795     0.91800
C1922       C  0.95876751  0.56047198  0.65971890     0.76100
O1923       O  0.93804014  0.51436468  0.56977622    -0.50500
O1924       O  0.98204422  0.57241630  0.63798330    -0.51700
O1925       O  0.97269077  0.97722403  0.63923670    -0.64500
O1926       O  0.52146298  0.56962624  0.58486002    -0.65600
C1927       C  0.60571181  0.55968539  0.81689170     0.76900
Tb1928     Tb  0.98291471  0.52676346  0.85662411     1.80700
O1929       O  0.59194506  0.57241997  0.83245536    -0.51100
O1930       O  0.55492555  0.98307280  0.88285389    -0.58600
C1931       C  0.55256964  0.59203552  0.90465980     0.92700
O1932       O  0.98094362  0.57193137  0.84718104    -0.58100
Tb1933     Tb  0.55215690  0.52521783  0.85947589     1.78100
O1934       O  0.93814699  0.97865999  0.85621203    -0.58600
O1935       O  0.51087457  0.97560288  0.82862680    -0.77400
O1936       O  0.56468118  0.57612650  0.90000868    -0.76700
O1937       O  0.53421731  0.51944654  0.77932200    -0.62000
C1938       C  0.98198241  0.95885661  0.81225306     0.92300
O1939       O  0.99257991  0.51791412  0.93319021    -0.73900
C1940       C  0.92748690  0.49478202  0.89393863     0.75800
C1941       C  0.58107806  0.99998857  0.90452451     0.76700
O1942       O  0.59183408  0.52951192  0.81905113    -0.59200
O1943       O  0.59318510  0.03035314  0.90733070    -0.51100
O1944       O  0.50308992  0.53616859  0.78071091    -0.77200
O1945       O  0.53567887  0.52487040  0.93600535    -0.61200
C1946       C  0.51363347  0.52281148  0.95526558     0.90500
C1947       C  0.51918546  0.52817654  0.75860761     0.91800
C1948       C  0.95779244  0.55642583  0.81700654     0.76100
O1949       O  0.94655758  0.52542566  0.90389123    -0.50500
O1950       O  0.94834721  0.52675776  0.80352841    -0.51700
O1951       O  0.97320312  0.97713619  0.80473558    -0.64500
O1952       O  0.52518194  0.57956029  0.89110303    -0.65600
C1953       C  0.61201274  0.68419996  0.93454988     0.16400
C1954       C  0.63837128  0.71535726  0.93530333    -0.32600
C1955       C  0.63547495  0.74157653  0.93292421     0.20800
C1956       C  0.60770996  0.73723640  0.93141916     0.03000
C1957       C  0.58142143  0.70624111  0.93187898    -0.22400
C1958       C  0.58423981  0.67984005  0.93274834     0.12200
S1959       S  0.61041842  0.64858854  0.92968783    -0.06000
C1960       C  0.57186269  0.62751047  0.92344382    -0.09500
C1961       C  0.56111821  0.64739311  0.92714750    -0.26100
S1962       S  0.60881952  0.77181085  0.92640082    -0.03300
C1963       C  0.64707719  0.79219041  0.92546475    -0.16700
C1964       C  0.65820944  0.77313255  0.92964659    -0.14700
H1965       H  0.66000223  0.71872487  0.93536945     0.20600
H1966       H  0.55967741  0.70261408  0.92948752     0.16700
H1967       H  0.53766875  0.63852291  0.92192019     0.19200
H1968       H  0.68158173  0.78176363  0.92958297     0.12500
C1969       C  0.79501080  0.90207421  0.90044554     0.16400
C1970       C  0.82193952  0.90436659  0.89457817    -0.32600
C1971       C  0.84809987  0.93582103  0.89518170     0.20800
C1972       C  0.84743782  0.96367085  0.90239363     0.03000
C1973       C  0.82060506  0.96134624  0.90823411    -0.22400
C1974       C  0.79444146  0.92996925  0.90662207     0.12200
S1975       S  0.75676216  0.85819295  0.39834197    -0.06000
C1976       C  0.74556034  0.88931313  0.90797959    -0.09500
C1977       C  0.76616277  0.92282241  0.91075866    -0.26100
S1978       S  0.88117199  0.99957250  0.90168009    -0.03300
C1979       C  0.89641940  0.97699607  0.89043090    -0.16700
C1980       C  0.87630247  0.94331738  0.88786776    -0.14700
H1981       H  0.81978815  0.87756271  0.40000651     0.20600
H1982       H  0.82010003  0.98311366  0.91331657     0.16700
H1983       H  0.76080734  0.94104873  0.91603798     0.19200
H1984       H  0.87926835  0.92180457  0.39659085     0.12500
C1985       C  0.63283172  0.97217040  0.92744253     0.16400
C1986       C  0.65724129  0.96907885  0.92883394    -0.32200
C1987       C  0.65081811  0.93709808  0.92174403     0.20800
C1988       C  0.62142827  0.90967693  0.91475333     0.03000
C1989       C  0.59720550  0.91276947  0.91351609    -0.22400
C1990       C  0.60358425  0.94450525  0.91951886     0.12200
S1991       S  0.63550379  0.00841142  0.93087401    -0.06000
C1992       C  0.59693181  0.98570667  0.91968611    -0.09500
C1993       C  0.58293111  0.95211559  0.91551237    -0.26100
S1994       S  0.61781144  0.87308669  0.90820482    -0.03300
C1995       C  0.65636588  0.89454580  0.91455066    -0.16700
C1996       C  0.67116426  0.92853792  0.92111035    -0.14700
H1997       H  0.68013921  0.99056209  0.93426729     0.20600
H1998       H  0.57429917  0.89127252  0.90736795     0.16700
H1999       H  0.55901832  0.93407270  0.90666152     0.19200
H2000       H  0.69530056  0.94591581  0.92652486     0.12500
C2001       C  0.60717708  0.66936264  0.56032276     0.16400
C2002       C  0.63304061  0.69979851  0.55524053    -0.32600
C2003       C  0.62978253  0.72569854  0.55146190     0.20800
C2004       C  0.60206590  0.72139635  0.55215274     0.03000
C2005       C  0.57625267  0.69093130  0.55632028    -0.22400
C2006       C  0.57952292  0.66522508  0.56062022     0.12200
S2007       S  0.60630992  0.63527139  0.56869727    -0.06000
C2008       C  0.56833745  0.61556903  0.57312560    -0.09500
C2009       C  0.55718093  0.63441885  0.56741027    -0.26100
S2010       S  0.60263431  0.75569468  0.54773045    -0.03300
C2011       C  0.64061190  0.77611853  0.54409903    -0.16700
C2012       C  0.65210288  0.75719852  0.54689971    -0.14700
H2013       H  0.65472120  0.70326910  0.55498146     0.20600
H2014       H  0.55461004  0.68753730  0.55694963     0.16700
H2015       H  0.53404020  0.62633854  0.56960297     0.19200
H2016       H  0.67539968  0.76587170  0.54497744     0.12500
C2017       C  0.78848234  0.88827903  0.52789105     0.16400
C2018       C  0.81617614  0.89195134  0.53142088    -0.32600
C2019       C  0.84198271  0.92357097  0.53260711     0.20800
C2020       C  0.84023024  0.95021299  0.52935964     0.03000
C2021       C  0.81252461  0.94645392  0.52511999    -0.22400
C2022       C  0.78676337  0.91495810  0.52489598     0.12200
S2023       S  0.75480753  0.85239290  0.52917793    -0.06000
C2024       C  0.73822586  0.87357571  0.52582511    -0.09500
C2025       C  0.75790753  0.90664155  0.52344743    -0.26100
S2026       S  0.87250234  0.48484875  0.54413716    -0.03300
C2027       C  0.89064364  0.96627471  0.54283575    -0.16700
C2028       C  0.87099093  0.93264865  0.54019827    -0.14700
H2029       H  0.81758721  0.87125057  0.53468969     0.20600
H2030       H  0.81115560  0.96734868  0.52342525     0.16700
H2031       H  0.75152452  0.92377333  0.52161548     0.19200
H2032       H  0.87748130  0.91610269  0.54634758     0.12500
C2033       C  0.63649159  0.91609142  0.51499194     0.16400
C2034       C  0.63447411  0.94312985  0.51531535    -0.32600
C2035       C  0.60650787  0.93818857  0.52137679     0.20800
C2036       C  0.58152917  0.90755848  0.52619693     0.03000
C2037       C  0.58329783  0.88025921  0.52401079    -0.22400
C2038       C  0.61138076  0.88535052  0.51885531     0.12200
S2039       S  0.66905210  0.91785262  0.51391083    -0.06000
C2040       C  0.64861041  0.87671970  0.51873029    -0.09500
C2041       C  0.61814281  0.86258530  0.52049331    -0.26100
S2042       S  0.55080353  0.90760133  0.54026779    -0.03300
C2043       C  0.57180387  0.94927262  0.53949298    -0.16700
C2044       C  0.60083851  0.96211730  0.52791189    -0.14700
H2045       H  0.65416566  0.96732661  0.51318005     0.20600
H2046       H  0.56397707  0.85644585  0.52878231     0.16700
H2047       H  0.60193053  0.83724783  0.52457120     0.19200
H2048       H  0.61760904  0.98803356  0.52816077     0.12500
C2049       C  0.91513487  0.64468364  0.80664630     0.16400
C2050       C  0.93971700  0.64246852  0.81147738    -0.32600
C2051       C  0.93399359  0.61103888  0.80570047     0.20800
C2052       C  0.90506563  0.58288527  0.79571041     0.03000
C2053       C  0.88033106  0.58508851  0.79097807    -0.22400
C2054       C  0.88611188  0.61668738  0.79666943     0.12200
S2055       S  0.91783540  0.68073707  0.81143803    -0.06000
C2056       C  0.87943904  0.65800525  0.79934803    -0.09500
C2057       C  0.86534405  0.62421038  0.79265815    -0.26100
S2058       S  0.90309420  0.54707524  0.79186930    -0.03300
C2059       C  0.94158400  0.57058138  0.80398010    -0.16700
C2060       C  0.95502069  0.60412338  0.81049813    -0.14700
H2061       H  0.96235569  0.66432354  0.81935952     0.20600
H2062       H  0.85769353  0.56324659  0.78318325     0.16700
H2063       H  0.84140514  0.60624377  0.78433232     0.19200
H2064       H  0.97879906  0.62246568  0.82025646     0.12500
C2065       C  0.92415895  0.81322923  0.78787341     0.16400
C2066       C  0.95048247  0.84391532  0.78651483    -0.32600
C2067       C  0.94818401  0.87077935  0.78867067     0.20800
C2068       C  0.92086484  0.86729706  0.79118758     0.03000
C2069       C  0.89445091  0.83648813  0.79239756    -0.22400
C2070       C  0.89680630  0.80960810  0.79106237     0.12200
S2071       S  0.92256710  0.77795500  0.78676407    -0.06000
C2072       C  0.88455784  0.75790445  0.79066404    -0.09500
C2073       C  0.87384851  0.77774012  0.79266081    -0.26100
S2074       S  0.92322868  0.90336934  0.79628606    -0.03300
C2075       C  0.96150772  0.92327389  0.79709545    -0.16700
C2076       C  0.97157050  0.90282165  0.79176307    -0.14700
H2077       H  0.97191640  0.84683711  0.78489980     0.20600
H2078       H  0.87313794  0.83369429  0.79512082     0.16700
H2079       H  0.85066230  0.76935653  0.79514870     0.19200
H2080       H  0.99493208  0.91113159  0.79302504     0.12500
C2081       C  0.68749233  0.61980206  0.79708187     0.16400
C2082       C  0.71662152  0.64771738  0.79742363    -0.32600
C2083       C  0.74000358  0.64305546  0.79446762     0.20800
C2084       C  0.73456249  0.61197610  0.79098076     0.03000
C2085       C  0.70548878  0.58409749  0.79013460    -0.22400
C2086       C  0.68220207  0.58878742  0.79337086     0.12200
S2087       S  0.65633526  0.62037475  0.80417367    -0.06000
C2088       C  0.63619805  0.57848721  0.80257866    -0.09500
C2089       C  0.65276045  0.56494315  0.79591170    -0.26100
S2090       S  0.76574508  0.61131642  0.78845835    -0.03300
C2091       C  0.78650136  0.65341981  0.79196554    -0.16700
C2092       C  0.76989585  0.66705820  0.79501875    -0.14700
H2093       H  0.72092696  0.67202766  0.80061441     0.20600
H2094       H  0.70125128  0.55984952  0.78771601     0.16700
H2095       H  0.64408566  0.53930081  0.79598399     0.19200
H2096       H  0.77916317  0.69304268  0.79759388     0.12500
C2097       C  0.90875423  0.59207558  0.67452538     0.16400
C2098       C  0.88442057  0.59499165  0.67135285    -0.32600
C2099       C  0.89071832  0.62662307  0.67381046     0.20800
C2100       C  0.91718056  0.64702004  0.17429158     0.03000
C2101       C  0.94099551  0.64309853  0.17475634    -0.22400
C2102       C  0.93805917  0.61960295  0.68024620     0.12200
S2103       S  0.90553813  0.55560429  0.66834086    -0.06000
C2104       C  0.94404665  0.57748123  0.67285774    -0.09500
C2105       C  0.95361732  0.60198526  0.17023938    -0.26100
S2106       S  0.92084326  0.68347226  0.17407944    -0.03300
C2107       C  0.88406819  0.66784921  0.67257718    -0.16700
C2108       C  0.87002248  0.63425502  0.66980203    -0.14700
H2109       H  0.86156595  0.57346921  0.66616833     0.20600
H2110       H  0.96392895  0.66386206  0.17506651     0.16700
H2111       H  0.97743320  0.61860864  0.16787975     0.19200
H2112       H  0.84596967  0.61633681  0.66475728     0.12500
C2113       C  0.95435578  0.87311890  0.64302330     0.16400
C2114       C  0.95058840  0.84293169  0.64450019    -0.32600
C2115       C  0.92268538  0.81719659  0.65511850     0.20800
C2116       C  0.89971874  0.82144538  0.66436385     0.03000
C2117       C  0.90395052  0.85202415  0.66510307    -0.22400
C2118       C  0.93172011  0.87764889  0.65393029     0.12200
S2119       S  0.98495460  0.90593490  0.62448473    -0.06000
C2120       C  0.96710558  0.92598004  0.63180608    -0.09500
C2121       C  0.93921757  0.90830808  0.64870044    -0.26100
S2122       S  0.86668718  0.78655288  0.67180454    -0.03300
C2123       C  0.88425804  0.76619804  0.66382518    -0.16700
C2124       C  0.91404844  0.78552716  0.65534679    -0.14700
H2125       H  0.96812791  0.83928094  0.63573758     0.20600
H2126       H  0.88603594  0.85534217  0.67219667     0.16700
H2127       H  0.92462058  0.91679480  0.65431001     0.19200
H2128       H  0.92835372  0.77676024  0.64869013     0.12500
C2129       C  0.73946898  0.64659155  0.67276653     0.16400
C2130       C  0.71168557  0.64253057  0.67388148    -0.32600
C2131       C  0.68630094  0.61054234  0.67133167     0.20800
C2132       C  0.68842769  0.58373475  0.66872611     0.03000
C2133       C  0.71633879  0.58781967  0.66772206    -0.22400
C2134       C  0.74178173  0.61988044  0.66945747     0.12200
S2135       S  0.77257013  0.68341147  0.67420260    -0.06000
C2136       C  0.78994481  0.66277932  0.66988549    -0.09500
C2137       C  0.77087061  0.62904093  0.66778630    -0.26100
S2138       S  0.65467800  0.54678575  0.66379923    -0.03300
C2139       C  0.63774072  0.56780232  0.66401725    -0.16700
C2140       C  0.65726623  0.60154603  0.66853393    -0.14700
H2141       H  0.70988905  0.66335135  0.67581967     0.20600
H2142       H  0.71809094  0.56694069  0.66498356     0.16700
H2143       H  0.77785534  0.61222548  0.66506270     0.19200
H2144       H  0.65051658  0.61839837  0.66733750     0.12500
loop_ 
_geom_bond_atom_site_label_1 
_geom_bond_atom_site_label_2 
_geom_bond_distance 
_geom_bond_site_symmetry_2 
_ccdc_geom_bond_type 
C1            N2   1.354       .  A
C1            N6   1.351       .  A
C1          C260   1.461       .  S
N2            C3   1.359       .  A
C3            N4   1.361       .  A
C3          C231   1.468       .  S
N4            C5   1.359       .  A
C5            N6   1.350       .  A
C5          C247   1.466       .  S
C7            N8   1.359       .  A
C7           N12   1.362       .  A
C7          C215   1.470       .  S
N8            C9   1.356       .  A
C9           N10   1.350       .  A
C9          C180   1.465       .  S
N10          C11   1.353       .  A
C11          N12   1.359       .  A
C11         C196   1.465       .  S
C13          N14   1.358       .  A
C13          N18   1.358       .  A
C13         C148   1.469       .  S
N14          C15   1.358       .  A
C15          N16   1.357       .  A
C15         C135   1.473       .  S
N16          C17   1.357       .  A
C17          N18   1.357       .  A
C17         C164   1.471       .  S
C19          N20   1.362       .  A
C19          N24   1.363       .  A
C19         C100   1.472       .  S
N20          C21   1.357       .  A
C21          N22   1.349       .  A
C21          C87   1.464       .  S
N22          C23   1.348       .  A
C23          N24   1.359       .  A
C23         C119   1.464       .  S
C25         C263   1.453       .  S
C25          O40   1.258       .  A
C25          O27   1.252       .  A
Tb26         O48   2.363       .  S
Tb26         O37   2.355       .  S
Tb26         O30   2.352       .  S
Tb26         O47   2.348       .  S
Tb26        O585   2.332   1_545  S
Tb26        O568   2.361   1_545  S
Tb26       O1114   2.366       .  S
Tb26       O1122   2.318       .  S
O27         Tb31   2.351       .  S
O28          C39   1.258       .  A
O28        Tb567   2.357       .  S
C29         C132   1.474       .  S
C29          O34   1.270       .  A
C29          O50   1.272       .  A
O30          C46   1.255       .  A
Tb31         O35   2.325       .  S
Tb31         O40   2.349       .  S
Tb31         O34   2.333       .  S
Tb31         O43   2.333       .  S
Tb31        O564   2.377   1_545  S
Tb31        O577   2.337       .  S
Tb31        O569   2.293   1_545  S
O32         C574   1.262       .  A
O32        Tb562   2.364       .  S
O33        C1108   1.262       .  A
O33        Tb567   2.335   1_655  S
O35          C45   1.269       .  A
C36         C244   1.464       .  S
C36          O49   1.263       .  A
C36        O1105   1.266       .  A
O37        C1116   1.273       .  A
C38         C687   1.462       .  S
C38          O47   1.257   1_565  A
C38         O568   1.259       .  A
C39         C167   1.466       .  S
C39          O41   1.260       .  A
O41        Tb567   2.363       .  S
O42          C45   1.272   1_655  A
O42       Tb1098   2.344       .  S
O43          C44   1.271       .  A
C44          C71   1.461       .  S
C44        O1109   1.272   1_455  A
C45         C338   1.466   1_554  S
C46         C228   1.460       .  S
C46          O48   1.257       .  A
O49        Tb562   2.329       .  S
O50       Tb1098   2.348   1_455  S
C51         C212   1.464       .  S
C51          O66   1.258       .  A
C51          O53   1.261       .  A
Tb52         O74   2.347       .  S
Tb52         O63   2.340       .  S
Tb52         O56   2.358       .  S
Tb52         O73   2.357       .  S
Tb52        O611   2.319   1_545  S
Tb52        O594   2.359   1_545  S
Tb52       O1140   2.356       .  S
Tb52       O1148   2.316       .  S
O53         Tb57   2.360       .  S
O54          C65   1.258       .  A
O54        Tb593   2.366       .  S
C55          C84   1.467       .  S
C55          O60   1.270       .  A
C55          O76   1.269       .  A
O56          C72   1.259       .  A
Tb57         O61   2.326       .  S
Tb57         O66   2.343       .  S
Tb57         O60   2.341       .  S
Tb57         O69   2.302       .  S
Tb57        O590   2.356   1_545  S
Tb57        O603   2.359       .  S
Tb57        O595   2.342   1_445  S
O58         C600   1.262       .  A
O58        Tb588   2.364       .  S
O59        C1134   1.269       .  A
O59        Tb593   2.332   1_655  S
O61          C71   1.268       .  A
C62         C199   1.463       .  S
C62          O75   1.266       .  A
C62        O1131   1.273       .  A
O63        C1142   1.272       .  A
C64         C639   1.465       .  S
C64          O73   1.259   1_565  A
C64         O594   1.261       .  A
C65         C116   1.457       .  S
C65          O67   1.255       .  A
O67        Tb593   2.344       .  S
O68          C71   1.267       .  A
O68       Tb1124   2.343   1_455  S
O69          C70   1.266       .  A
C70         C313   1.460       .  S
C70        O1135   1.272   1_455  A
C72         C183   1.458       .  S
C72          O74   1.257       .  A
O75        Tb588   2.323       .  S
O76       Tb1124   2.323   1_455  S
C77          S83   1.706       .  A
C77          C82   1.387       .  A
C77          C78   1.403       .  A
C78          C79   1.402       .  A
C78          H89   1.080       .  S
C79          C88   1.372       .  A
C79          C80   1.387       .  A
C80          S86   1.694       .  A
C80          C81   1.394       .  A
C81          C82   1.395       .  A
C81          H90   1.081       .  S
C82          C85   1.363       .  A
S83          C84   1.724       .  A
C84          C85   1.383       .  A
C85          H91   1.082       .  S
S86          C87   1.721       .  A
C87          C88   1.386       .  A
C88          H92   1.081       .  S
C93         S367   1.704       .  A
C93          C98   1.387       .  A
C93          C94   1.400       .  A
C94          C95   1.400       .  A
C94         H373   1.084       .  S
C95         C104   1.370       .  A
C95          C96   1.388       .  A
C96         S102   1.706       .  A
C96          C97   1.402       .  A
C97          C98   1.403       .  A
C97         H106   1.084       .  S
C98         C101   1.371       .  A
S99         C361   1.705       .  A
S99         C368   1.723       .  A
C100        S367   1.723       .  A
C100        C101   1.387       .  A
C101        H107   1.084       .  S
S102        C103   1.724       .  A
C103        C600   1.467       .  S
C103        C104   1.383       .  A
C104        H376   1.084       .  S
H105        C362   1.084       .  S
H108        C372   1.084       .  S
C109        S115   1.697       .  A
C109        C114   1.388       .  A
C109        C110   1.397       .  A
C110        C111   1.397       .  A
C110        H121   1.084       .  S
C111        C120   1.368       .  A
C111        C112   1.388       .  A
C112        S118   1.698       .  A
C112        C113   1.400       .  A
C113        C114   1.399       .  A
C113        H122   1.084       .  S
C114        C117   1.369       .  A
S115        C116   1.718       .  A
C116        C117   1.383       .  A
C117        H123   1.084       .  S
S118        C119   1.725       .  A
C119        C120   1.381       .  A
C120        H124   1.083       .  S
C125        S131   1.705       .  A
C125        C130   1.386       .  A
C125        C126   1.401       .  A
C126        C127   1.402       .  A
C126        H137   1.081       .  S
C127        C136   1.371       .  A
C127        C128   1.386       .  A
C128        S134   1.705       .  A
C128        C129   1.401       .  A
C129        C130   1.402       .  A
C129        H138   1.081       .  S
C130        C133   1.371       .  A
S131        C132   1.724       .  A
C132        C133   1.387       .  A
C133        H139   1.082       .  S
S134        C135   1.723       .  A
C135        C136   1.387       .  A
C136        H140   1.082       .  S
C141        S147   1.705       .  A
C141        C146   1.387       .  A
C141        C142   1.401       .  A
C142        C143   1.401       .  A
C142        H153   1.084       .  S
C143        C152   1.370       .  A
C143        C144   1.388       .  A
C144        S686   1.699       .  A
C144        C145   1.398       .  A
C145        C146   1.399       .  A
C145        H154   1.084       .  S
C146        C149   1.367       .  A
S147        C148   1.723       .  A
C148        C149   1.385       .  A
C149        H155   1.084       .  S
S150        C680   1.701       .  A
S150        C687   1.720       .  A
C151        C574   1.460       .  S
C151        S686   1.721       .  A
C151        C152   1.383       .  A
C152        H156   1.084       .  S
C157        S163   1.707       .  A
C157        C162   1.387       .  A
C157        C158   1.400       .  A
C158        C159   1.401       .  A
C158        H169   1.084       .  S
C159        C168   1.368       .  A
C159        C160   1.387       .  A
C160        S166   1.708       .  A
C160        C161   1.401       .  A
C161        C162   1.402       .  A
C161        H170   1.083       .  S
C162        C165   1.369       .  A
S163        C164   1.723       .  A
C164        C165   1.386       .  A
C165        H171   1.083       .  S
S166        C167   1.722       .  A
C167        C168   1.384       .  A
C168        H172   1.084       .  S
C173        S179   1.703       .  A
C173        C178   1.387       .  A
C173        C174   1.400       .  A
C174        C175   1.401       .  A
C174        H185   1.082       .  S
C175        C184   1.369       .  A
C175        C176   1.388       .  A
C176        S182   1.700       .  A
C176        C177   1.397       .  A
C177        C178   1.398       .  A
C177        H186   1.082       .  S
C178        C181   1.366       .  A
S179        C180   1.724       .  A
C180        C181   1.382       .  A
C181        H187   1.082       .  S
S182        C183   1.719       .  A
C183        C184   1.384       .  A
C184        H188   1.082       .  S
C189        S195   1.694       .  A
C189        C194   1.387       .  A
C189        C190   1.393       .  A
C190        C191   1.393       .  A
C190        H201   1.082       .  S
C191        C200   1.361       .  A
C191        C192   1.387       .  A
C192        S198   1.707       .  A
C192        C193   1.403       .  A
C193        C194   1.404       .  A
C193        H202   1.082       .  S
C194        C197   1.372       .  A
S195        C196   1.720       .  A
C196        C197   1.387       .  A
C197        H203   1.082       .  S
S198        C199   1.724       .  A
C199        C200   1.380       .  A
C200        H204   1.083       .  S
C205        S211   1.709       .  A
C205        C210   1.387       .  A
C205        C206   1.401       .  A
C206        C207   1.403       .  A
C206        H217   1.082       .  S
C207        C216   1.370       .  A
C207        C208   1.387       .  A
C208        S214   1.703       .  A
C208        C209   1.398       .  A
C209        C210   1.400       .  A
C209        H218   1.082       .  S
C210        C213   1.365       .  A
S211        C212   1.722       .  A
C212        C213   1.384       .  A
C213        H219   1.083       .  S
S214        C215   1.722       .  A
C215        C216   1.386       .  A
C216        H220   1.083       .  S
C221        S227   1.700       .  A
C221        C226   1.387       .  A
C221        C222   1.397       .  A
C222        C223   1.398       .  A
C222        H233   1.082       .  S
C223        C232   1.364       .  A
C223        C492   1.386       .  A
C224        S230   1.707       .  A
C224        C225   1.402       .  A
C224        C491   1.386       .  A
C225        C494   1.403       .  A
C225        H234   1.082       .  S
C226        C493   1.402       .  A
C226        C497   1.369       .  A
S227        C228   1.719       .  A
C228        C497   1.384       .  A
C229        C494   1.372       .  A
C229        C496   1.386       .  A
C229        H235   1.083       .  S
S230        C499   1.724       .  A
C231        S498   1.723       .  A
C231        C232   1.384       .  A
C232        H236   1.082       .  S
C237        S243   1.701       .  A
C237        C242   1.387       .  A
C237        C238   1.399       .  A
C238        C239   1.399       .  A
C238        H249   1.082       .  S
C239        C248   1.368       .  A
C239        C240   1.387       .  A
C240        S246   1.701       .  A
C240        C241   1.400       .  A
C241        C242   1.400       .  A
C241        H250   1.082       .  S
C242        C245   1.369       .  A
S243        C244   1.720       .  A
C244        C245   1.385       .  A
C245        H251   1.083       .  S
S246        C247   1.724       .  A
C247        C248   1.383       .  A
C248        H252   1.083       .  S
C253        S259   1.692       .  A
C253        C258   1.388       .  A
C253        C254   1.391       .  A
C254        C255   1.392       .  A
C254        H265   1.083       .  S
C255        C264   1.359       .  A
C255        C256   1.387       .  A
C256        S262   1.705       .  A
C256        C257   1.402       .  A
C257        C258   1.403       .  A
C257        H266   1.083       .  S
C258        C261   1.370       .  A
S259        C260   1.718       .  A
C260        C261   1.386       .  A
C261        H267   1.083       .  S
S262        C263   1.724       .  A
C263        C264   1.376       .  A
C264        H268   1.083       .  S
C269        N270   1.358       .  A
C269        N274   1.352       .  A
C269        C528   1.467       .  S
N270        C271   1.362       .  A
C271        N272   1.362       .  A
C271        C499   1.474       .  S
N272        C273   1.359       .  A
C273        N274   1.351       .  A
C273        C515   1.468       .  S
C275        N276   1.360       .  A
C275        N280   1.362       .  A
C275        C483   1.470       .  S
N276        C277   1.355       .  A
C277        N278   1.348       .  A
C277        C448   1.463       .  S
N278        C279   1.351       .  A
C279        N280   1.360       .  A
C279        C464   1.464       .  S
C281        N282   1.355       .  A
C281        N286   1.359       .  A
C281        C416   1.469       .  S
N282        C283   1.356       .  A
C283        N284   1.356       .  A
C283        C403   1.467       .  S
N284        C285   1.358       .  A
C285        N286   1.358       .  A
C285        C432   1.471       .  S
C287        N288   1.357       .  A
C287        N292   1.360       .  A
C287        C368   1.467       .  S
N288        C289   1.356       .  A
C289        N290   1.354       .  A
C289        C355   1.467       .  S
N290        C291   1.355       .  A
C291        N292   1.358       .  A
C291        C387   1.467       .  S
C293        C531   1.458       .  S
C293        O308   1.261       .  A
C293        O295   1.262       .  A
Tb294       O316   2.370       .  S
Tb294       O853   2.343   1_545  S
Tb294       O836   2.358   1_545  S
Tb294      O1382   2.358       .  S
Tb294       O305   2.336       .  S
Tb294       O298   2.370       .  S
Tb294      O1390   2.310       .  S
Tb294       O315   2.336       .  S
O295       Tb299   2.355       .  S
O296        C307   1.258       .  A
O296       Tb835   2.348       .  S
C297        C400   1.464       .  S
C297        O302   1.270       .  A
C297        O318   1.264       .  A
O298        C314   1.258       .  A
Tb299       O832   2.348   1_545  S
Tb299       O303   2.309       .  S
Tb299       O308   2.334       .  S
Tb299       O302   2.352       .  S
Tb299       O845   2.362   1_545  S
Tb299       O311   2.327       .  S
Tb299       O837   2.337   1_445  S
O300        C842   1.261       .  A
O300       Tb830   2.360       .  S
O301       C1376   1.264       .  A
O301       Tb835   2.336   1_655  S
O303        C313   1.269       .  A
C304        C512   1.463       .  S
C304       O1373   1.263       .  A
C304        O317   1.264       .  A
O305       C1384   1.272       .  A
C306        C955   1.457       .  S
C306        O836   1.262       .  A
C306        O315   1.256   1_565  A
C307        C435   1.461       .  S
C307        O309   1.260       .  A
O309       Tb835   2.362       .  S
O310        C313   1.274   1_655  A
O310      Tb1366   2.358       .  S
O311        C312   1.271       .  A
C312        C339   1.464       .  S
C312       O1377   1.278       .  A
C314        C496   1.471       .  S
C314        O316   1.258       .  A
O317       Tb830   2.334       .  S
O318      Tb1366   2.316   1_455  S
C319        C480   1.467       .  S
C319        O334   1.258       .  A
C319        O321   1.262       .  A
Tb320       O342   2.344       .  S
Tb320       O879   2.327   1_545  S
Tb320       O862   2.355   1_545  S
Tb320      O1408   2.342       .  S
Tb320       O331   2.320       .  S
Tb320       O324   2.351       .  S
Tb320      O1416   2.319       .  S
Tb320       O341   2.350       .  S
O321       Tb325   2.371       .  S
O322        C333   1.256       .  A
O322       Tb861   2.357       .  S
C323        C352   1.469       .  S
C323        O328   1.269       .  A
C323        O344   1.270       .  A
O324        C340   1.259       .  A
Tb325       O858   2.356   1_545  S
Tb325       O329   2.331       .  S
Tb325       O334   2.341       .  S
Tb325       O328   2.329       .  S
Tb325       O871   2.358       .  S
Tb325       O337   2.329       .  S
Tb325       O863   2.329   1_545  S
O326        C868   1.261       .  A
O326       Tb856   2.357       .  S
O327       C1402   1.272   1_455  A
O327       Tb861   2.338       .  S
O329        C339   1.268       .  A
C330        C467   1.464       .  S
C330       O1399   1.269       .  A
C330        O343   1.267       .  A
O331       C1410   1.265       .  A
C332        C907   1.459       .  S
C332        O862   1.261       .  A
C332        O341   1.257   1_565  A
C333        C384   1.461       .  S
C333        O335   1.255       .  A
O335       Tb861   2.361       .  S
O336        C339   1.268       .  A
O336      Tb1392   2.347   1_455  S
O337        C338   1.271       .  A
C338       O1403   1.269   1_455  A
C340        C451   1.454       .  S
C340        O342   1.257       .  A
O343       Tb856   2.329       .  S
O344      Tb1392   2.333   1_455  S
C345        S351   1.703       .  A
C345        C350   1.387       .  A
C345        C346   1.400       .  A
C346        C347   1.400       .  A
C346        H357   1.082       .  S
C347        C356   1.367       .  A
C347        C348   1.387       .  A
C348        S354   1.703       .  A
C348        C349   1.399       .  A
C349        C350   1.400       .  A
C349        H358   1.081       .  S
C350        C353   1.367       .  A
S351        C352   1.724       .  A
C352        C353   1.386       .  A
C353        H359   1.082       .  S
S354        C355   1.722       .  A
C355        C356   1.385       .  A
C356        H360   1.082       .  S
C361        C366   1.387       .  A
C361        C362   1.400       .  A
C362        C363   1.401       .  A
C363        C372   1.369       .  A
C363        C364   1.388       .  A
C364        S370   1.702       .  A
C364        C365   1.398       .  A
C365        C366   1.399       .  A
C365        H374   1.084       .  S
C366        C369   1.366       .  A
C368        C369   1.383       .  A
C369        H375   1.084       .  S
S370        C371   1.720       .  A
C371        C868   1.460       .  S
C371        C372   1.384       .  A
C377        S383   1.706       .  A
C377        C382   1.387       .  A
C377        C378   1.402       .  A
C378        C379   1.403       .  A
C378        H389   1.083       .  S
C379        C388   1.371       .  A
C379        C380   1.388       .  A
C380        S386   1.699       .  A
C380        C381   1.396       .  A
C381        C382   1.397       .  A
C381        H390   1.083       .  S
C382        C385   1.365       .  A
S383        C384   1.723       .  A
C384        C385   1.381       .  A
C385        H391   1.083       .  S
S386        C387   1.720       .  A
C387        C388   1.387       .  A
C388        H392   1.083       .  S
C393        S399   1.707       .  A
C393        C398   1.387       .  A
C393        C394   1.399       .  A
C394        C395   1.401       .  A
C394        H405   1.081       .  S
C395        C404   1.366       .  A
C395        C396   1.387       .  A
C396        S402   1.704       .  A
C396        C397   1.398       .  A
C397        C398   1.400       .  A
C397        H406   1.082       .  S
C398        C401   1.364       .  A
S399        C400   1.721       .  A
C400        C401   1.385       .  A
C401        H407   1.083       .  S
S402        C403   1.721       .  A
C403        C404   1.386       .  A
C404        H408   1.082       .  S
C409        S415   1.705       .  A
C409        C414   1.387       .  A
C409        C410   1.401       .  A
C410        C411   1.402       .  A
C410        H421   1.084       .  S
C411        C420   1.370       .  A
C411        C412   1.387       .  A
C412        S954   1.699       .  A
C412        C413   1.397       .  A
C413        C414   1.398       .  A
C413        H422   1.084       .  S
C414        C417   1.367       .  A
S415        C416   1.724       .  A
C416        C417   1.383       .  A
C417        H423   1.084       .  S
S418        C948   1.697       .  A
S418        C955   1.720       .  A
C419        C842   1.462       .  S
C419        S954   1.720       .  A
C419        C420   1.385       .  A
C420        H424   1.084       .  S
C425        S431   1.707       .  A
C425        C430   1.387       .  A
C425        C426   1.400       .  A
C426        C427   1.402       .  A
C426        H437   1.084       .  S
C427        C436   1.368       .  A
C427        C428   1.387       .  A
C428        S434   1.705       .  A
C428        C429   1.399       .  A
C429        C430   1.400       .  A
C429        H438   1.084       .  S
C430        C433   1.367       .  A
S431        C432   1.723       .  A
C432        C433   1.386       .  A
C433        H439   1.084       .  S
S434        C435   1.720       .  A
C435        C436   1.384       .  A
C436        H440   1.084       .  S
C441        S447   1.699       .  A
C441        C446   1.387       .  A
C441        C442   1.398       .  A
C442        C443   1.398       .  A
C442        H453   1.082       .  S
C443        C452   1.366       .  A
C443        C444   1.388       .  A
C444        S450   1.699       .  A
C444        C445   1.397       .  A
C445        C446   1.398       .  A
C445        H454   1.082       .  S
C446        C449   1.366       .  A
S447        C448   1.723       .  A
C448        C449   1.382       .  A
C449        H455   1.083       .  S
S450        C451   1.719       .  A
C451        C452   1.381       .  A
C452        H456   1.083       .  S
C457        S463   1.694       .  A
C457        C462   1.387       .  A
C457        C458   1.394       .  A
C458        C459   1.395       .  A
C458        H469   1.082       .  S
C459        C468   1.361       .  A
C459        C460   1.386       .  A
C460        S466   1.706       .  A
C460        C461   1.402       .  A
C461        C462   1.403       .  A
C461        H470   1.081       .  S
C462        C465   1.371       .  A
S463        C464   1.722       .  A
C464        C465   1.385       .  A
C465        H471   1.082       .  S
S466        C467   1.723       .  A
C467        C468   1.383       .  A
C468        H472   1.083       .  S
C473        S479   1.713       .  A
C473        C478   1.386       .  A
C473        C474   1.405       .  A
C474        C475   1.406       .  A
C474        H485   1.082       .  S
C475        C484   1.372       .  A
C475        C476   1.387       .  A
C476        S482   1.700       .  A
C476        C477   1.395       .  A
C477        C478   1.397       .  A
C477        H486   1.083       .  S
C478        C481   1.363       .  A
S479        C480   1.724       .  A
C480        C481   1.383       .  A
C481        H487   1.083       .  S
S482        C483   1.721       .  A
C483        C484   1.389       .  A
C484        H488   1.083       .  S
C489        S495   1.707       .  A
C489        C494   1.386       .  A
C489        C490   1.402       .  A
C490        C491   1.403       .  A
C490        H501   1.082       .  S
C491        C500   1.371       .  A
C492        S498   1.707       .  A
C492        C493   1.401       .  A
C493        H502   1.082       .  S
S495        C496   1.723       .  A
C497        H503   1.083       .  S
C499        C500   1.388       .  A
C500        H504   1.082       .  S
C505        S511   1.702       .  A
C505        C510   1.387       .  A
C505        C506   1.399       .  A
C506        C507   1.399       .  A
C506        H517   1.082       .  S
C507        C516   1.369       .  A
C507        C508   1.387       .  A
C508        S514   1.700       .  A
C508        C509   1.400       .  A
C509        C510   1.399       .  A
C509        H518   1.082       .  S
C510        C513   1.368       .  A
S511        C512   1.720       .  A
C512        C513   1.384       .  A
C513        H519   1.083       .  S
S514        C515   1.724       .  A
C515        C516   1.384       .  A
C516        H520   1.082       .  S
C521        S527   1.697       .  A
C521        C526   1.387       .  A
C521        C522   1.395       .  A
C522        C523   1.396       .  A
C522        H533   1.083       .  S
C523        C532   1.363       .  A
C523        C524   1.387       .  A
C524        S530   1.709       .  A
C524        C525   1.403       .  A
C525        C526   1.403       .  A
C525        H534   1.083       .  S
C526        C529   1.372       .  A
S527        C528   1.721       .  A
C528        C529   1.386       .  A
C529        H535   1.083       .  S
S530        C531   1.722       .  A
C531        C532   1.379       .  A
C532        H536   1.083       .  S
C537        N538   1.360       .  A
C537        N542   1.354       .  A
C537        C796   1.470       .  S
N538        C539   1.362       .  A
C539        N540   1.360       .  A
C539        C767   1.474       .  S
N540        C541   1.358       .  A
C541        N542   1.353       .  A
C541        C783   1.469       .  S
C543        N544   1.358       .  A
C543        N548   1.361       .  A
C543        C751   1.465       .  S
N544        C545   1.355       .  A
C545        N546   1.350       .  A
C545        C716   1.462       .  S
N546        C547   1.352       .  A
C547        N548   1.357       .  A
C547        C732   1.463       .  S
C549        N550   1.355       .  A
C549        N554   1.358       .  A
C549        C684   1.471       .  S
N550        C551   1.356       .  A
C551        N552   1.358       .  A
C551        C671   1.469       .  S
N552        C553   1.358       .  A
C553        N554   1.359       .  A
C553        C700   1.472       .  S
C555        N556   1.359       .  A
C555        N560   1.362       .  A
C555        C636   1.472       .  S
N556        C557   1.356       .  A
C557        N558   1.353       .  A
C557        C623   1.468       .  S
N558        C559   1.354       .  A
C559        N560   1.360       .  A
C559        C655   1.469       .  S
C561        C799   1.463       .  S
C561        O576   1.258       .  A
C561        O563   1.257       .  A
Tb562       O584   2.373       .  S
Tb562      O1650   2.364       .  S
Tb562       O573   2.360       .  S
Tb562       O566   2.353       .  S
Tb562      O1658   2.311       .  S
Tb562       O583   2.338       .  S
O563       Tb567   2.358       .  S
O564        C575   1.262       .  A
C565        C668   1.470       .  S
C565        O570   1.272       .  A
C565        O586   1.269       .  A
O566        C582   1.255       .  A
Tb567       O571   2.303       .  S
Tb567       O576   2.350       .  S
Tb567       O570   2.348       .  S
Tb567       O579   2.340       .  S
O569       C1644   1.261   1_455  A
O571        C581   1.267       .  A
C572        C780   1.469       .  S
C572       O1641   1.265       .  A
C572        O585   1.262       .  A
O573       C1652   1.275       .  A
C574        O583   1.256       .  A
C575        C703   1.469       .  S
C575        O577   1.258   1_565  A
O578        C581   1.276   1_655  A
O578      Tb1634   2.359       .  S
O579        C580   1.274       .  A
C580        C607   1.465       .  S
C580       O1645   1.274   1_455  A
C581        C874   1.458   1_554  S
C582        C764   1.466       .  S
C582        O584   1.259       .  A
O586      Tb1634   2.327   1_455  S
C587        C748   1.460       .  S
C587        O602   1.258       .  A
C587        O589   1.260       .  A
Tb588       O610   2.348       .  S
Tb588      O1676   2.356       .  S
Tb588       O599   2.346       .  S
Tb588       O592   2.352       .  S
Tb588      O1684   2.319       .  S
Tb588       O609   2.355       .  S
O589       Tb593   2.356       .  S
O590        C601   1.258       .  A
C591        C620   1.471       .  S
C591        O596   1.269       .  A
C591        O612   1.269       .  A
O592        C608   1.259       .  A
Tb593       O597   2.321       .  S
Tb593       O602   2.345       .  S
Tb593       O596   2.343       .  S
Tb593       O605   2.323       .  S
O595       C1670   1.271       .  A
O597        C607   1.267       .  A
C598        C735   1.463       .  S
C598       O1667   1.272       .  A
C598        O611   1.265       .  A
O599       C1678   1.272       .  A
C600        O609   1.257       .  A
C601        C652   1.461       .  S
C601        O603   1.257   1_565  A
O604        C607   1.272   1_655  A
O604      Tb1660   2.343       .  S
O605        C606   1.268       .  A
C606        C849   1.461       .  S
C606       O1671   1.270   1_455  A
C608        C719   1.455       .  S
C608        O610   1.257       .  A
O612      Tb1660   2.326   1_455  S
C613        S619   1.711       .  A
C613        C618   1.386       .  A
C613        C614   1.404       .  A
C614        C615   1.405       .  A
C614        H625   1.081       .  S
C615        C624   1.371       .  A
C615        C616   1.387       .  A
C616        S622   1.700       .  A
C616        C617   1.396       .  A
C617        C618   1.397       .  A
C617        H626   1.081       .  S
C618        C621   1.363       .  A
S619        C620   1.725       .  A
C620        C621   1.385       .  A
C621        H627   1.082       .  S
S622        C623   1.720       .  A
C623        C624   1.388       .  A
C624        H628   1.082       .  S
C629        S903   1.703       .  A
C629        C634   1.387       .  A
C629        C630   1.400       .  A
C630        C631   1.400       .  A
C630        H909   1.084       .  S
C631        C640   1.370       .  A
C631        C632   1.388       .  A
C632        S638   1.706       .  A
C632        C633   1.402       .  A
C633        C634   1.402       .  A
C633        H642   1.084       .  S
C634        C637   1.371       .  A
S635        C897   1.703       .  A
S635        C904   1.722       .  A
C636        S903   1.723       .  A
C636        C637   1.387       .  A
C637        H643   1.083       .  S
S638        C639   1.722       .  A
C639        C640   1.384       .  A
C640        H912   1.084       .  S
H641        C898   1.084       .  S
H644        C908   1.084       .  S
C645        S651   1.705       .  A
C645        C650   1.388       .  A
C645        C646   1.401       .  A
C646        C647   1.402       .  A
C646        H657   1.084       .  S
C647        C656   1.371       .  A
C647        C648   1.387       .  A
C648        S654   1.701       .  A
C648        C649   1.398       .  A
C649        C650   1.398       .  A
C649        H658   1.084       .  S
C650        C653   1.366       .  A
S651        C652   1.721       .  A
C652        C653   1.382       .  A
C653        H659   1.084       .  S
S654        C655   1.723       .  A
C655        C656   1.385       .  A
C656        H660   1.083       .  S
C661        S667   1.708       .  A
C661        C666   1.386       .  A
C661        C662   1.401       .  A
C662        C663   1.402       .  A
C662        H673   1.081       .  S
C663        C672   1.367       .  A
C663        C664   1.386       .  A
C664        S670   1.705       .  A
C664        C665   1.398       .  A
C665        C666   1.400       .  A
C665        H674   1.081       .  S
C666        C669   1.365       .  A
S667        C668   1.723       .  A
C668        C669   1.386       .  A
C669        H675   1.082       .  S
S670        C671   1.721       .  A
C671        C672   1.387       .  A
C672        H676   1.082       .  S
C677        S683   1.704       .  A
C677        C682   1.387       .  A
C677        C678   1.401       .  A
C678        C679   1.401       .  A
C678        H689   1.083       .  S
C679        C688   1.370       .  A
C679        C680   1.387       .  A
C680        C681   1.399       .  A
C681        C682   1.400       .  A
C681        H690   1.084       .  S
C682        C685   1.369       .  A
S683        C684   1.724       .  A
C684        C685   1.386       .  A
C685        H691   1.084       .  S
C687        C688   1.385       .  A
C688        H692   1.084       .  S
C693        S699   1.702       .  A
C693        C698   1.387       .  A
C693        C694   1.395       .  A
C694        C695   1.397       .  A
C694        H705   1.083       .  S
C695        C704   1.362       .  A
C695        C696   1.386       .  A
C696        S702   1.715       .  A
C696        C697   1.406       .  A
C697        C698   1.408       .  A
C697        H706   1.083       .  S
C698        C701   1.373       .  A
S699        C700   1.719       .  A
C700        C701   1.390       .  A
C701        H707   1.083       .  S
S702        C703   1.726       .  A
C703        C704   1.383       .  A
C704        H708   1.084       .  S
C709        S715   1.699       .  A
C709        C714   1.387       .  A
C709        C710   1.397       .  A
C710        C711   1.398       .  A
C710        H721   1.082       .  S
C711        C720   1.366       .  A
C711        C712   1.388       .  A
C712        S718   1.701       .  A
C712        C713   1.398       .  A
C713        C714   1.399       .  A
C713        H722   1.082       .  S
C714        C717   1.367       .  A
S715        C716   1.722       .  A
C716        C717   1.383       .  A
C717        H723   1.083       .  S
S718        C719   1.719       .  A
C719        C720   1.381       .  A
C720        H724   1.083       .  S
C725        S731   1.693       .  A
C725        C730   1.388       .  A
C725        C726   1.393       .  A
C726        C727   1.393       .  A
C726        H737   1.081       .  S
C727        C736   1.363       .  A
C727        C728   1.387       .  A
C728        S734   1.706       .  A
C728        C729   1.404       .  A
C729        C730   1.404       .  A
C729        H738   1.082       .  S
C730        C733   1.373       .  A
S731        C732   1.719       .  A
C732        C733   1.387       .  A
C733        H739   1.082       .  S
S734        C735   1.726       .  A
C735        C736   1.380       .  A
C736        H740   1.082       .  S
C741        S747   1.706       .  A
C741        C746   1.387       .  A
C741        C742   1.398       .  A
C742        C743   1.400       .  A
C742        H753   1.082       .  S
C743        C752   1.366       .  A
C743        C744   1.387       .  A
C744        S750   1.703       .  A
C744        C745   1.398       .  A
C745        C746   1.400       .  A
C745        H754   1.082       .  S
C746        C749   1.364       .  A
S747        C748   1.719       .  A
C748        C749   1.384       .  A
C749        H755   1.083       .  S
S750        C751   1.722       .  A
C751        C752   1.384       .  A
C752        H756   1.082       .  S
C757        S763   1.702       .  A
C757        C762   1.387       .  A
C757        C758   1.400       .  A
C758        C759   1.401       .  A
C758        H769   1.082       .  S
C759        C768   1.371       .  A
C759       C1028   1.386       .  A
C760        S766   1.707       .  A
C760       C1027   1.386       .  A
C760        C761   1.401       .  A
C761       C1030   1.402       .  A
C761        H770   1.082       .  S
C762       C1029   1.403       .  A
C762       C1033   1.373       .  A
S763        C764   1.722       .  A
C764       C1033   1.385       .  A
C765       C1030   1.371       .  A
C765       C1032   1.385       .  A
C765        H771   1.082       .  S
S766       C1035   1.723       .  A
C767       S1034   1.725       .  A
C767        C768   1.386       .  A
C768        H772   1.082       .  S
C773        S779   1.704       .  A
C773        C778   1.387       .  A
C773        C774   1.399       .  A
C774        C775   1.400       .  A
C774        H785   1.081       .  S
C775        C784   1.369       .  A
C775        C776   1.387       .  A
C776        S782   1.705       .  A
C776        C777   1.402       .  A
C777        C778   1.403       .  A
C777        H786   1.082       .  S
C778        C781   1.371       .  A
S779        C780   1.720       .  A
C780        C781   1.387       .  A
C781        H787   1.082       .  S
S782        C783   1.724       .  A
C783        C784   1.384       .  A
C784        H788   1.082       .  S
C789        S795   1.700       .  A
C789        C794   1.387       .  A
C789        C790   1.398       .  A
C790        C791   1.399       .  A
C790        H801   1.082       .  S
C791        C800   1.367       .  A
C791        C792   1.387       .  A
C792        S798   1.706       .  A
C792        C793   1.402       .  A
C793        C794   1.402       .  A
C793        H802   1.082       .  S
C794        C797   1.372       .  A
S795        C796   1.723       .  A
C796        C797   1.386       .  A
C797        H803   1.082       .  S
S798        C799   1.723       .  A
C799        C800   1.384       .  A
C800        H804   1.083       .  S
C805        N806   1.359       .  A
C805        N810   1.354       .  A
C805       C1064   1.471       .  S
N806        C807   1.362       .  A
C807        N808   1.362       .  A
C807       C1035   1.475       .  S
N808        C809   1.359       .  A
C809        N810   1.353       .  A
C809       C1051   1.473       .  S
C811        N812   1.361       .  A
C811        N816   1.364       .  A
C811       C1019   1.471       .  S
N812        C813   1.354       .  A
C813        N814   1.348       .  A
C813        C984   1.464       .  S
N814        C815   1.351       .  A
C815        N816   1.362       .  A
C815       C1000   1.466       .  S
C817        N818   1.353       .  A
C817        N822   1.357       .  A
C817        C952   1.463       .  S
N818        C819   1.354       .  A
C819        N820   1.358       .  A
C819        C939   1.465       .  S
N820        C821   1.358       .  A
C821        N822   1.356       .  A
C821        C968   1.469       .  S
C823        N824   1.360       .  A
C823        N828   1.361       .  A
C823        C904   1.467       .  S
N824        C825   1.357       .  A
C825        N826   1.352       .  A
C825        C891   1.465       .  S
N826        C827   1.351       .  A
C827        N828   1.357       .  A
C827        C923   1.465       .  S
C829       C1067   1.466       .  S
C829        O844   1.260       .  A
C829        O831   1.258       .  A
Tb830       O852   2.371       .  S
Tb830      O1918   2.353       .  S
Tb830       O841   2.341       .  S
Tb830       O834   2.364       .  S
Tb830      O1926   2.329       .  S
Tb830       O851   2.341       .  S
O831       Tb835   2.364       .  S
O832        C843   1.259       .  A
C833        C936   1.465       .  S
C833        O838   1.270       .  A
C833        O854   1.269       .  A
O834        C850   1.255       .  A
Tb835       O839   2.318       .  S
Tb835       O844   2.351       .  S
Tb835       O838   2.338       .  S
Tb835       O847   2.338       .  S
O837       C1912   1.265       .  A
O839        C849   1.271       .  A
C840       C1048   1.467       .  S
C840       O1909   1.264       .  A
C840        O853   1.267       .  A
O841       C1920   1.272       .  A
C842        O851   1.258       .  A
C843        C971   1.462       .  S
C843        O845   1.261       .  A
O846        C849   1.273   1_655  A
O846      Tb1902   2.349       .  S
O847        C848   1.273       .  A
C848        C875   1.458       .  S
C848       O1913   1.271       .  A
C850       C1032   1.469       .  S
C850        O852   1.258       .  A
O854      Tb1902   2.321   1_455  S
C855       C1016   1.466       .  S
C855        O870   1.259       .  A
C855        O857   1.263       .  A
Tb856       O878   2.354       .  S
Tb856      O1944   2.342       .  S
Tb856       O867   2.335       .  S
Tb856       O860   2.355       .  S
Tb856      O1952   2.329       .  S
Tb856       O877   2.349       .  S
O857       Tb861   2.368       .  S
O858        C869   1.257       .  A
C859        C888   1.469       .  S
C859        O864   1.268       .  A
C859        O880   1.271       .  A
O860        C876   1.259       .  A
Tb861       O865   2.316       .  S
Tb861       O870   2.335       .  S
Tb861       O864   2.331       .  S
Tb861       O873   2.316       .  S
O863       C1938   1.269   1_455  A
O865        C875   1.264       .  A
C866       C1003   1.467       .  S
C866       O1935   1.272       .  A
C866        O879   1.268       .  A
O867       C1946   1.268       .  A
C868        O877   1.258       .  A
C869        C920   1.460       .  S
C869        O871   1.257   1_565  A
O872        C875   1.269       .  A
O872      Tb1928   2.348   1_455  S
O873        C874   1.269       .  A
C874       O1939   1.267   1_455  A
C876        C987   1.458       .  S
C876        O878   1.257       .  A
O880      Tb1928   2.333   1_455  S
C881        S887   1.706       .  A
C881        C886   1.386       .  A
C881        C882   1.404       .  A
C882        C883   1.404       .  A
C882        H893   1.081       .  S
C883        C892   1.372       .  A
C883        C884   1.387       .  A
C884        S890   1.695       .  A
C884        C885   1.394       .  A
C885        C886   1.395       .  A
C885        H894   1.082       .  S
C886        C889   1.363       .  A
S887        C888   1.727       .  A
C888        C889   1.383       .  A
C889        H895   1.082       .  S
S890        C891   1.719       .  A
C891        C892   1.387       .  A
C892        H896   1.082       .  S
C897        C902   1.387       .  A
C897        C898   1.399       .  A
C898        C899   1.399       .  A
C899        C908   1.367       .  A
C899        C900   1.388       .  A
C900        S906   1.703   1_565  A
C900        C901   1.399       .  A
C901        C902   1.400       .  A
C901        H910   1.084       .  S
C902        C905   1.367       .  A
C904        C905   1.385       .  A
C905        H911   1.084       .  S
S906        C907   1.721   1_545  A
C907        C908   1.382       .  A
C913        S919   1.704       .  A
C913        C918   1.388       .  A
C913        C914   1.400       .  A
C914        C915   1.400       .  A
C914        H925   1.083       .  S
C915        C924   1.369       .  A
C915        C916   1.388       .  A
C916        S922   1.699       .  A
C916        C917   1.398       .  A
C917        C918   1.398       .  A
C917        H926   1.083       .  S
C918        C921   1.367       .  A
S919        C920   1.720       .  A
C920        C921   1.383       .  A
C921        H927   1.084       .  S
S922        C923   1.722       .  A
C923        C924   1.384       .  A
C924        H928   1.083       .  S
C929        S935   1.708       .  A
C929        C934   1.386       .  A
C929        C930   1.400       .  A
C930        C931   1.402       .  A
C930        H941   1.081       .  S
C931        C940   1.365       .  A
C931        C932   1.387       .  A
C932        S938   1.702       .  A
C932        C933   1.395       .  A
C933        C934   1.398       .  A
C933        H942   1.082       .  S
C934        C937   1.361       .  A
S935        C936   1.723       .  A
C936        C937   1.384       .  A
C937        H943   1.082       .  S
S938        C939   1.719       .  A
C939        C940   1.387       .  A
C940        H944   1.082       .  S
C945        S951   1.703       .  A
C945        C950   1.387       .  A
C945        C946   1.399       .  A
C946        C947   1.400       .  A
C946        H957   1.084       .  S
C947        C956   1.367       .  A
C947        C948   1.388       .  A
C948        C949   1.395       .  A
C949        C950   1.396       .  A
C949        H958   1.084       .  S
C950        C953   1.363       .  A
S951        C952   1.723       .  A
C952        C953   1.382       .  A
C953        H959   1.084       .  S
C955        C956   1.383       .  A
C956        H960   1.084       .  S
C961        S967   1.705       .  A
C961        C966   1.387       .  A
C961        C962   1.400       .  A
C962        C963   1.401       .  A
C962        H973   1.084       .  S
C963        C972   1.369       .  A
C963        C964   1.387       .  A
C964        S970   1.707       .  A
C964        C965   1.400       .  A
C965        C966   1.401       .  A
C965        H974   1.084       .  S
C966        C969   1.369       .  A
S967        C968   1.723       .  A
C968        C969   1.385       .  A
C969        H975   1.084       .  S
S970        C971   1.720       .  A
C971        C972   1.384       .  A
C972        H976   1.084       .  S
C977        S983   1.697       .  A
C977        C982   1.387       .  A
C977        C978   1.397       .  A
C978        C979   1.397       .  A
C978        H989   1.082       .  S
C979        C988   1.366       .  A
C979        C980   1.388       .  A
C980        S986   1.703       .  A
C980        C981   1.401       .  A
C981        C982   1.401       .  A
C981        H990   1.082       .  S
C982        C985   1.369       .  A
S983        C984   1.722       .  A
C984        C985   1.384       .  A
C985        H991   1.082       .  S
S986        C987   1.721       .  A
C987        C988   1.381       .  A
C988        H992   1.083       .  S
C993        S999   1.695       .  A
C993        C998   1.387       .  A
C993        C994   1.397       .  A
C994        C995   1.397       .  A
C994       H1005   1.082       .  S
C995       C1004   1.366       .  A
C995        C996   1.387       .  A
C996       S1002   1.702       .  A
C996        C997   1.401       .  A
C997        C998   1.400       .  A
C997       H1006   1.082       .  S
C998       C1001   1.372       .  A
S999       C1000   1.724       .  A
C1000      C1001   1.384       .  A
C1001      H1007   1.082       .  S
S1002      C1003   1.724       .  A
C1003      C1004   1.384       .  A
C1004      H1008   1.083       .  S
C1009      S1015   1.714       .  A
C1009      C1014   1.386       .  A
C1009      C1010   1.406       .  A
C1010      C1011   1.407       .  A
C1010      H1021   1.082       .  S
C1011      C1020   1.374       .  A
C1011      C1012   1.387       .  A
C1012      S1018   1.698       .  A
C1012      C1013   1.394       .  A
C1013      C1014   1.396       .  A
C1013      H1022   1.083       .  S
C1014      C1017   1.362       .  A
S1015      C1016   1.724       .  A
C1016      C1017   1.382       .  A
C1017      H1023   1.084       .  S
S1018      C1019   1.721       .  A
C1019      C1020   1.389       .  A
C1020      H1024   1.082       .  S
C1025      S1031   1.707       .  A
C1025      C1030   1.387       .  A
C1025      C1026   1.403       .  A
C1026      C1027   1.403       .  A
C1026      H1037   1.082       .  S
C1027      C1036   1.372       .  A
C1028      S1034   1.707       .  A
C1028      C1029   1.403       .  A
C1029      H1038   1.082       .  S
S1031      C1032   1.723       .  A
C1033      H1039   1.082       .  S
C1035      C1036   1.388       .  A
C1036      H1040   1.082       .  S
C1041      S1047   1.704       .  A
C1041      C1046   1.387       .  A
C1041      C1042   1.402       .  A
C1042      C1043   1.402       .  A
C1042      H1053   1.081       .  S
C1043      C1052   1.373       .  A
C1043      C1044   1.387       .  A
C1044      S1050   1.702       .  A
C1044      C1045   1.401       .  A
C1045      C1046   1.400       .  A
C1045      H1054   1.082       .  S
C1046      C1049   1.371       .  A
S1047      C1048   1.723       .  A
C1048      C1049   1.384       .  A
C1049      H1055   1.083       .  S
S1050      C1051   1.724       .  A
C1051      C1052   1.387       .  A
C1052      H1056   1.082       .  S
C1057      S1063   1.699       .  A
C1057      C1062   1.387       .  A
C1057      C1058   1.397       .  A
C1058      C1059   1.397       .  A
C1058      H1069   1.082       .  S
C1059      C1068   1.366       .  A
C1059      C1060   1.387       .  A
C1060      S1066   1.710       .  A
C1060      C1061   1.405       .  A
C1061      C1062   1.405       .  A
C1061      H1070   1.082       .  S
C1062      C1065   1.374       .  A
S1063      C1064   1.722       .  A
C1064      C1065   1.388       .  A
C1065      H1071   1.082       .  S
S1066      C1067   1.725       .  A
C1067      C1068   1.382       .  A
C1068      H1072   1.083       .  S
C1073      N1074   1.358       .  A
C1073      N1078   1.350       .  A
C1073      C1332   1.466       .  S
N1074      C1075   1.363       .  A
C1075      N1076   1.362       .  A
C1075      C1303   1.470       .  S
N1076      C1077   1.357       .  A
C1077      N1078   1.349       .  A
C1077      C1319   1.466       .  S
C1079      N1080   1.361       .  A
C1079      N1084   1.362       .  A
C1079      C1287   1.473       .  S
N1080      C1081   1.357       .  A
C1081      N1082   1.350       .  A
C1081      C1252   1.467       .  S
N1082      C1083   1.352       .  A
C1083      N1084   1.360       .  A
C1083      C1268   1.466       .  S
C1085      N1086   1.355       .  A
C1085      N1090   1.357       .  A
C1085      C1220   1.467       .  S
N1086      C1087   1.356       .  A
C1087      N1088   1.359       .  A
C1087      C1207   1.470       .  S
N1088      C1089   1.360       .  A
C1089      N1090   1.357       .  A
C1089      C1236   1.471       .  S
C1091      N1092   1.357       .  A
C1091      N1096   1.361       .  A
C1091      C1172   1.468       .  S
N1092      C1093   1.355       .  A
C1093      N1094   1.352       .  A
C1093      C1159   1.464       .  S
N1094      C1095   1.354       .  A
C1095      N1096   1.359       .  A
C1095      C1191   1.465       .  S
C1097      C1335   1.457       .  S
C1097      O1112   1.259       .  A
C1097      O1099   1.262       .  A
Tb1098     O1120   2.354       .  S
Tb1098     O1657   2.351   1_545  S
Tb1098     O1640   2.359   1_545  S
Tb1098     O1109   2.345       .  S
Tb1098     O1102   2.362       .  S
Tb1098     O1119   2.359       .  S
O1099     Tb1103   2.360       .  S
O1100      C1111   1.260       .  A
O1100     Tb1639   2.338       .  S
C1101      C1204   1.471       .  S
C1101      O1106   1.272       .  A
C1101      O1122   1.265       .  A
O1102      C1118   1.257       .  A
Tb1103     O1636   2.342   1_545  S
Tb1103     O1107   2.299       .  S
Tb1103     O1112   2.331       .  S
Tb1103     O1106   2.364       .  S
Tb1103     O1649   2.349   1_545  S
Tb1103     O1115   2.326       .  S
Tb1103     O1641   2.344   1_545  S
O1104      C1646   1.261       .  A
O1104     Tb1634   2.369       .  S
O1105     Tb1639   2.342       .  S
O1107      C1117   1.265       .  A
C1108      C1316   1.461       .  S
C1108      O1121   1.262       .  A
C1110      C1759   1.465       .  S
C1110      O1640   1.259       .  A
C1110      O1119   1.258   1_565  A
C1111      C1239   1.458       .  S
C1111      O1113   1.262       .  A
O1113     Tb1639   2.358       .  S
O1114      C1117   1.278       .  A
O1115      C1116   1.270       .  A
C1116      C1143   1.463       .  S
C1117      C1410   1.458   1_554  S
C1118      C1300   1.462       .  S
C1118      O1120   1.257       .  A
O1121     Tb1634   2.327       .  S
C1123      C1284   1.470       .  S
C1123      O1138   1.258       .  A
C1123      O1125   1.262       .  A
Tb1124     O1146   2.355       .  S
Tb1124     O1683   2.334   1_545  S
Tb1124     O1666   2.359   1_545  S
Tb1124     O1135   2.353       .  S
Tb1124     O1128   2.356       .  S
Tb1124     O1145   2.335       .  S
O1125     Tb1129   2.373       .  S
O1126      C1137   1.258       .  A
O1126     Tb1665   2.347       .  S
C1127      C1156   1.465       .  S
C1127      O1132   1.271       .  A
C1127      O1148   1.268       .  A
O1128      C1144   1.259       .  A
Tb1129     O1662   2.357   1_545  S
Tb1129     O1133   2.317       .  S
Tb1129     O1138   2.349       .  S
Tb1129     O1132   2.343       .  S
Tb1129     O1675   2.364       .  S
Tb1129     O1141   2.327       .  S
Tb1129     O1667   2.343   1_545  S
O1130      C1672   1.260       .  A
O1130     Tb1660   2.356       .  S
O1131     Tb1665   2.345       .  S
O1133      C1143   1.265       .  A
C1134      C1271   1.468       .  S
C1134      O1147   1.266       .  A
C1136      C1711   1.458       .  S
C1136      O1666   1.263       .  A
C1136      O1145   1.258   1_565  A
C1137      C1188   1.461       .  S
C1137      O1139   1.256       .  A
O1139     Tb1665   2.364       .  S
O1140      C1143   1.270       .  A
O1141      C1142   1.271       .  A
C1142      C1385   1.463       .  S
C1144      C1255   1.459       .  S
C1144      O1146   1.257       .  A
O1147     Tb1660   2.324       .  S
C1149      S1155   1.704       .  A
C1149      C1154   1.387       .  A
C1149      C1150   1.398       .  A
C1150      C1151   1.400       .  A
C1150      H1161   1.080       .  S
C1151      C1160   1.366       .  A
C1151      C1152   1.387       .  A
C1152      S1158   1.702       .  A
C1152      C1153   1.398       .  A
C1153      C1154   1.399       .  A
C1153      H1162   1.081       .  S
C1154      C1157   1.364       .  A
S1155      C1156   1.721       .  A
C1156      C1157   1.386       .  A
C1157      H1163   1.082       .  S
S1158      C1159   1.722       .  A
C1159      C1160   1.384       .  A
C1160      H1164   1.081       .  S
C1165      S1439   1.703       .  A
C1165      C1170   1.387       .  A
C1165      C1166   1.400       .  A
C1166      C1167   1.400       .  A
C1166      H1445   1.084       .  S
C1167      C1176   1.369       .  A
C1167      C1168   1.388       .  A
C1168      S1174   1.702       .  A
C1168      C1169   1.398       .  A
C1169      C1170   1.399       .  A
C1169      H1178   1.084       .  S
C1170      C1173   1.367       .  A
S1171      C1433   1.702       .  A
S1171      C1440   1.723       .  A
C1172      S1439   1.724       .  A
C1172      C1173   1.384       .  A
C1173      H1179   1.084       .  S
S1174      C1175   1.721       .  A
C1175      C1672   1.461       .  S
C1175      C1176   1.384       .  A
C1176      H1448   1.084       .  S
H1177      C1434   1.084       .  S
H1180      C1444   1.084       .  S
C1181      S1187   1.709       .  A
C1181      C1186   1.387       .  A
C1181      C1182   1.403       .  A
C1182      C1183   1.404       .  A
C1182      H1193   1.083       .  S
C1183      C1192   1.371       .  A
C1183      C1184   1.387       .  A
C1184      S1190   1.697       .  A
C1184      C1185   1.394       .  A
C1185      C1186   1.395       .  A
C1185      H1194   1.084       .  S
C1186      C1189   1.362       .  A
S1187      C1188   1.724       .  A
C1188      C1189   1.379       .  A
C1189      H1195   1.084       .  S
S1190      C1191   1.720       .  A
C1191      C1192   1.386       .  A
C1192      H1196   1.083       .  S
C1197      S1203   1.714       .  A
C1197      C1202   1.386       .  A
C1197      C1198   1.403       .  A
C1198      C1199   1.405       .  A
C1198      H1209   1.081       .  S
C1199      C1208   1.369       .  A
C1199      C1200   1.386       .  A
C1200      S1206   1.706       .  A
C1200      C1201   1.397       .  A
C1201      C1202   1.400       .  A
C1201      H1210   1.082       .  S
C1202      C1205   1.364       .  A
S1203      C1204   1.724       .  A
C1204      C1205   1.385       .  A
C1205      H1211   1.083       .  S
S1206      C1207   1.721       .  A
C1207      C1208   1.388       .  A
C1208      H1212   1.082       .  S
C1213      S1219   1.704       .  A
C1213      C1218   1.387       .  A
C1213      C1214   1.401       .  A
C1214      C1215   1.401       .  A
C1214      H1225   1.084       .  S
C1215      C1224   1.371       .  A
C1215      C1216   1.387       .  A
C1216      S1758   1.700       .  A
C1216      C1217   1.398       .  A
C1217      C1218   1.398       .  A
C1217      H1226   1.084       .  S
C1218      C1221   1.367       .  A
S1219      C1220   1.723       .  A
C1220      C1221   1.384       .  A
C1221      H1227   1.084       .  S
S1222      C1752   1.706       .  A
S1222      C1759   1.723       .  A
C1223      C1646   1.463       .  S
C1223      S1758   1.721       .  A
C1223      C1224   1.384       .  A
C1224      H1228   1.083       .  S
C1229      S1235   1.705       .  A
C1229      C1234   1.387       .  A
C1229      C1230   1.400       .  A
C1230      C1231   1.401       .  A
C1230      H1241   1.084       .  S
C1231      C1240   1.368       .  A
C1231      C1232   1.388       .  A
C1232      S1238   1.704       .  A
C1232      C1233   1.399       .  A
C1233      C1234   1.400       .  A
C1233      H1242   1.084       .  S
C1234      C1237   1.368       .  A
S1235      C1236   1.724       .  A
C1236      C1237   1.385       .  A
C1237      H1243   1.084       .  S
S1238      C1239   1.719       .  A
C1239      C1240   1.383       .  A
C1240      H1244   1.084       .  S
C1245      S1251   1.699       .  A
C1245      C1250   1.387       .  A
C1245      C1246   1.398       .  A
C1246      C1247   1.398       .  A
C1246      H1257   1.082       .  S
C1247      C1256   1.367       .  A
C1247      C1248   1.387       .  A
C1248      S1254   1.703       .  A
C1248      C1249   1.400       .  A
C1249      C1250   1.401       .  A
C1249      H1258   1.082       .  S
C1250      C1253   1.370       .  A
S1251      C1252   1.723       .  A
C1252      C1253   1.385       .  A
C1253      H1259   1.082       .  S
S1254      C1255   1.721       .  A
C1255      C1256   1.382       .  A
C1256      H1260   1.083       .  S
C1261      S1267   1.697       .  A
C1261      C1266   1.387       .  A
C1261      C1262   1.396       .  A
C1262      C1263   1.396       .  A
C1262      H1273   1.082       .  S
C1263      C1272   1.365       .  A
C1263      C1264   1.387       .  A
C1264      S1270   1.705       .  A
C1264      C1265   1.402       .  A
C1265      C1266   1.402       .  A
C1265      H1274   1.082       .  S
C1266      C1269   1.372       .  A
S1267      C1268   1.722       .  A
C1268      C1269   1.385       .  A
C1269      H1275   1.082       .  S
S1270      C1271   1.725       .  A
C1271      C1272   1.383       .  A
C1272      H1276   1.083       .  S
C1277      S1283   1.713       .  A
C1277      C1282   1.386       .  A
C1277      C1278   1.405       .  A
C1278      C1279   1.406       .  A
C1278      H1289   1.082       .  S
C1279      C1288   1.373       .  A
C1279      C1280   1.387       .  A
C1280      S1286   1.703       .  A
C1280      C1281   1.398       .  A
C1281      C1282   1.400       .  A
C1281      H1290   1.082       .  S
C1282      C1285   1.366       .  A
S1283      C1284   1.724       .  A
C1284      C1285   1.385       .  A
C1285      H1291   1.083       .  S
S1286      C1287   1.722       .  A
C1287      C1288   1.389       .  A
C1288      H1292   1.083       .  S
C1293      S1299   1.706       .  A
C1293      C1298   1.387       .  A
C1293      C1294   1.401       .  A
C1294      C1295   1.402       .  A
C1294      H1305   1.082       .  S
C1295      C1304   1.369       .  A
C1295      C1564   1.387       .  A
C1296      S1302   1.707       .  A
C1296      C1563   1.386       .  A
C1296      C1297   1.404       .  A
C1297      C1566   1.404       .  A
C1297      H1306   1.082       .  S
C1298      C1565   1.400       .  A
C1298      C1569   1.367       .  A
S1299      C1300   1.722       .  A
C1300      C1569   1.383       .  A
C1301      C1566   1.375       .  A
C1301      C1568   1.386       .  A
C1301      H1307   1.082       .  S
S1302      C1571   1.725       .  A
C1303      S1570   1.722       .  A
C1303      C1304   1.386       .  A
C1304      H1308   1.082       .  S
C1309      S1315   1.703       .  A
C1309      C1314   1.388       .  A
C1309      C1310   1.401       .  A
C1310      C1311   1.401       .  A
C1310      H1321   1.082       .  S
C1311      C1320   1.370       .  A
C1311      C1312   1.387       .  A
C1312      S1318   1.696       .  A
C1312      C1313   1.396       .  A
C1313      C1314   1.396       .  A
C1313      H1322   1.082       .  S
C1314      C1317   1.366       .  A
S1315      C1316   1.721       .  A
C1316      C1317   1.381       .  A
C1317      H1323   1.083       .  S
S1318      C1319   1.722       .  A
C1319      C1320   1.385       .  A
C1320      H1324   1.082       .  S
C1325      S1331   1.693       .  A
C1325      C1330   1.388       .  A
C1325      C1326   1.393       .  A
C1326      C1327   1.394       .  A
C1326      H1337   1.083       .  S
C1327      C1336   1.361       .  A
C1327      C1328   1.387       .  A
C1328      S1334   1.709       .  A
C1328      C1329   1.404       .  A
C1329      C1330   1.404       .  A
C1329      H1338   1.082       .  S
C1330      C1333   1.373       .  A
S1331      C1332   1.721       .  A
C1332      C1333   1.387       .  A
C1333      H1339   1.083       .  S
S1334      C1335   1.722       .  A
C1335      C1336   1.379       .  A
C1336      H1340   1.083       .  S
C1341      N1342   1.361       .  A
C1341      N1346   1.352       .  A
C1341      C1600   1.471       .  S
N1342      C1343   1.365       .  A
C1343      N1344   1.362       .  A
C1343      C1571   1.476       .  S
N1344      C1345   1.358       .  A
C1345      N1346   1.351       .  A
C1345      C1587   1.469       .  S
C1347      N1348   1.362       .  A
C1347      N1352   1.361       .  A
C1347      C1555   1.470       .  S
N1348      C1349   1.358       .  A
C1349      N1350   1.352       .  A
C1349      C1520   1.468       .  S
N1350      C1351   1.353       .  A
C1351      N1352   1.357       .  A
C1351      C1536   1.467       .  S
C1353      N1354   1.351       .  A
C1353      N1358   1.357       .  A
C1353      C1488   1.463       .  S
N1354      C1355   1.354       .  A
C1355      N1356   1.358       .  A
C1355      C1475   1.462       .  S
N1356      C1357   1.359       .  A
C1357      N1358   1.356       .  A
C1357      C1504   1.469       .  S
C1359      N1360   1.359       .  A
C1359      N1364   1.364       .  A
C1359      C1440   1.468       .  S
N1360      C1361   1.354       .  A
C1361      N1362   1.347       .  A
C1361      C1427   1.461       .  S
N1362      C1363   1.350       .  A
C1363      N1364   1.361       .  A
C1363      C1459   1.465       .  S
C1365      C1603   1.466       .  S
C1365      O1380   1.260       .  A
C1365      O1367   1.258       .  A
Tb1366     O1388   2.373       .  S
Tb1366     O1925   2.334   1_545  S
Tb1366     O1908   2.366   1_545  S
Tb1366     O1377   2.366   1_655  S
Tb1366     O1370   2.357       .  S
Tb1366     O1387   2.338       .  S
O1367     Tb1371   2.359       .  S
O1368      C1379   1.258       .  A
O1368     Tb1907   2.354       .  S
C1369      C1472   1.461       .  S
C1369      O1374   1.272       .  A
C1369      O1390   1.267       .  A
O1370      C1386   1.256       .  A
Tb1371     O1904   2.357   1_545  S
Tb1371     O1375   2.318       .  S
Tb1371     O1380   2.355       .  S
Tb1371     O1374   2.343       .  S
Tb1371     O1917   2.365   1_545  S
Tb1371     O1383   2.343       .  S
Tb1371     O1909   2.338   1_545  S
O1372      C1914   1.261       .  A
O1372     Tb1902   2.366       .  S
O1373     Tb1907   2.334       .  S
O1375      C1385   1.270       .  A
C1376      C1584   1.464       .  S
C1376      O1389   1.266       .  A
C1378      C2027   1.460       .  S
C1378      O1908   1.262       .  A
C1378      O1387   1.255   1_565  A
C1379      C1507   1.464       .  S
C1379      O1381   1.259       .  A
O1381     Tb1907   2.367       .  S
O1382      C1385   1.276       .  A
O1383      C1384   1.274       .  A
C1384      C1411   1.463       .  S
C1386      C1568   1.467       .  S
C1386      O1388   1.258       .  A
O1389     Tb1902   2.343       .  S
C1391      C1552   1.465       .  S
C1391      O1406   1.260       .  A
C1391      O1393   1.262       .  A
Tb1392     O1414   2.353       .  S
Tb1392     O1951   2.333   1_545  S
Tb1392     O1934   2.371   1_545  S
Tb1392     O1403   2.338       .  S
Tb1392     O1396   2.348       .  S
Tb1392     O1413   2.347       .  S
O1393     Tb1397   2.360       .  S
O1394      C1405   1.258       .  A
O1394     Tb1933   2.358       .  S
C1395      C1424   1.465       .  S
C1395      O1400   1.267       .  A
C1395      O1416   1.266       .  A
O1396      C1412   1.258       .  A
Tb1397     O1930   2.357   1_545  S
Tb1397     O1401   2.326       .  S
Tb1397     O1406   2.344       .  S
Tb1397     O1400   2.328       .  S
Tb1397     O1943   2.364       .  S
Tb1397     O1409   2.324       .  S
Tb1397     O1935   2.340   1_545  S
O1398      C1940   1.263       .  A
O1398     Tb1928   2.351       .  S
O1399     Tb1933   2.326       .  S
O1401      C1411   1.268       .  A
C1402      C1539   1.467       .  S
C1402      O1415   1.267       .  A
C1404      C1979   1.466       .  S
C1404      O1934   1.261       .  A
C1404      O1413   1.258   1_565  A
C1405      C1456   1.458       .  S
C1405      O1407   1.256       .  A
O1407     Tb1933   2.352       .  S
O1408      C1411   1.271       .  A
O1409      C1410   1.269       .  A
C1412      C1523   1.457       .  S
C1412      O1414   1.259       .  A
O1415     Tb1928   2.333       .  S
C1417      S1423   1.702       .  A
C1417      C1422   1.387       .  A
C1417      C1418   1.399       .  A
C1418      C1419   1.399       .  A
C1418      H1429   1.082       .  S
C1419      C1428   1.367       .  A
C1419      C1420   1.387       .  A
C1420      S1426   1.698       .  A
C1420      C1421   1.396       .  A
C1421      C1422   1.398       .  A
C1421      H1430   1.082       .  S
C1422      C1425   1.364       .  A
S1423      C1424   1.723       .  A
C1424      C1425   1.385       .  A
C1425      H1431   1.083       .  S
S1426      C1427   1.722       .  A
C1427      C1428   1.383       .  A
C1428      H1432   1.083       .  S
C1433      C1438   1.387       .  A
C1433      C1434   1.399       .  A
C1434      C1435   1.399       .  A
C1435      C1444   1.368       .  A
C1435      C1436   1.387       .  A
C1436      S1442   1.705       .  A
C1436      C1437   1.400       .  A
C1437      C1438   1.401       .  A
C1437      H1446   1.084       .  S
C1438      C1441   1.370       .  A
C1440      C1441   1.385       .  A
C1441      H1447   1.084       .  S
S1442      C1443   1.721       .  A
C1443      C1940   1.462       .  S
C1443      C1444   1.383       .  A
C1449      S1455   1.701       .  A
C1449      C1454   1.388       .  A
C1449      C1450   1.401       .  A
C1450      C1451   1.400       .  A
C1450      H1461   1.083       .  S
C1451      C1460   1.371       .  A
C1451      C1452   1.388       .  A
C1452      S1458   1.694       .  A
C1452      C1453   1.397       .  A
C1453      C1454   1.396       .  A
C1453      H1462   1.083       .  S
C1454      C1457   1.367       .  A
S1455      C1456   1.720       .  A
C1456      C1457   1.382       .  A
C1457      H1463   1.083       .  S
S1458      C1459   1.723       .  A
C1459      C1460   1.384       .  A
C1460      H1464   1.083       .  S
C1465      S1471   1.705       .  A
C1465      C1470   1.387       .  A
C1465      C1466   1.396       .  A
C1466      C1467   1.400       .  A
C1466      H1477   1.081       .  S
C1467      C1476   1.361       .  A
C1467      C1468   1.387       .  A
C1468      S1474   1.704       .  A
C1468      C1469   1.395       .  A
C1469      C1470   1.398       .  A
C1469      H1478   1.081       .  S
C1470      C1473   1.359       .  A
S1471      C1472   1.720       .  A
C1472      C1473   1.385       .  A
C1473      H1479   1.082       .  S
S1474      C1475   1.720       .  A
C1475      C1476   1.384       .  A
C1476      H1480   1.082       .  S
C1481      S1487   1.706       .  A
C1481      C1486   1.387       .  A
C1481      C1482   1.402       .  A
C1482      C1483   1.403       .  A
C1482      H1493   1.083       .  S
C1483      C1492   1.371       .  A
C1483      C1484   1.388       .  A
C1484      S2026   1.696       .  A
C1484      C1485   1.394       .  A
C1485      C1486   1.394       .  A
C1485      H1494   1.084       .  S
C1486      C1489   1.362       .  A
S1487      C1488   1.725       .  A
C1488      C1489   1.380       .  A
C1489      H1495   1.084       .  S
S1490      C2020   1.699       .  A
S1490      C2027   1.721       .  A
C1491      C1914   1.460       .  S
C1491      S2026   1.718       .  A
C1491      C1492   1.385       .  A
C1492      H1496   1.083       .  S
C1497      S1503   1.706       .  A
C1497      C1502   1.387       .  A
C1497      C1498   1.401       .  A
C1498      C1499   1.403       .  A
C1498      H1509   1.084       .  S
C1499      C1508   1.371       .  A
C1499      C1500   1.388       .  A
C1500      S1506   1.706       .  A
C1500      C1501   1.400       .  A
C1501      C1502   1.400       .  A
C1501      H1510   1.084       .  S
C1502      C1505   1.368       .  A
S1503      C1504   1.723       .  A
C1504      C1505   1.385       .  A
C1505      H1511   1.084       .  S
S1506      C1507   1.719       .  A
C1507      C1508   1.385       .  A
C1508      H1512   1.085       .  S
C1513      S1519   1.700       .  A
C1513      C1518   1.387       .  A
C1513      C1514   1.399       .  A
C1514      C1515   1.399       .  A
C1514      H1525   1.083       .  S
C1515      C1524   1.367       .  A
C1515      C1516   1.387       .  A
C1516      S1522   1.702       .  A
C1516      C1517   1.400       .  A
C1517      C1518   1.400       .  A
C1517      H1526   1.082       .  S
C1518      C1521   1.370       .  A
S1519      C1520   1.723       .  A
C1520      C1521   1.385       .  A
C1521      H1527   1.083       .  S
S1522      C1523   1.719       .  A
C1523      C1524   1.383       .  A
C1524      H1528   1.083       .  S
C1529      S1535   1.696       .  A
C1529      C1534   1.387       .  A
C1529      C1530   1.393       .  A
C1530      C1531   1.395       .  A
C1530      H1541   1.082       .  S
C1531      C1540   1.360       .  A
C1531      C1532   1.386       .  A
C1532      S1538   1.711       .  A
C1532      C1533   1.404       .  A
C1533      C1534   1.406       .  A
C1533      H1542   1.082       .  S
C1534      C1537   1.373       .  A
S1535      C1536   1.720       .  A
C1536      C1537   1.388       .  A
C1537      H1543   1.082       .  S
S1538      C1539   1.726       .  A
C1539      C1540   1.382       .  A
C1540      H1544   1.083       .  S
C1545      S1551   1.709       .  A
C1545      C1550   1.386       .  A
C1545      C1546   1.401       .  A
C1546      C1547   1.403       .  A
C1546      H1557   1.082       .  S
C1547      C1556   1.368       .  A
C1547      C1548   1.386       .  A
C1548      S1554   1.706       .  A
C1548      C1549   1.398       .  A
C1549      C1550   1.400       .  A
C1549      H1558   1.083       .  S
C1550      C1553   1.365       .  A
S1551      C1552   1.722       .  A
C1552      C1553   1.384       .  A
C1553      H1559   1.083       .  S
S1554      C1555   1.722       .  A
C1555      C1556   1.387       .  A
C1556      H1560   1.082       .  S
C1561      S1567   1.703       .  A
C1561      C1566   1.387       .  A
C1561      C1562   1.401       .  A
C1562      C1563   1.401       .  A
C1562      H1573   1.082       .  S
C1563      C1572   1.371       .  A
C1564      S1570   1.704       .  A
C1564      C1565   1.399       .  A
C1565      H1574   1.082       .  S
S1567      C1568   1.721       .  A
C1569      H1575   1.083       .  S
C1571      C1572   1.386       .  A
C1572      H1576   1.082       .  S
C1577      S1583   1.703       .  A
C1577      C1582   1.387       .  A
C1577      C1578   1.401       .  A
C1578      C1579   1.401       .  A
C1578      H1589   1.081       .  S
C1579      C1588   1.371       .  A
C1579      C1580   1.387       .  A
C1580      S1586   1.700       .  A
C1580      C1581   1.400       .  A
C1581      C1582   1.400       .  A
C1581      H1590   1.082       .  S
C1582      C1585   1.370       .  A
S1583      C1584   1.721       .  A
C1584      C1585   1.383       .  A
C1585      H1591   1.082       .  S
S1586      C1587   1.724       .  A
C1587      C1588   1.385       .  A
C1588      H1592   1.082       .  S
C1593      S1599   1.698       .  A
C1593      C1598   1.387       .  A
C1593      C1594   1.398       .  A
C1594      C1595   1.398       .  A
C1594      H1605   1.082       .  S
C1595      C1604   1.368       .  A
C1595      C1596   1.387       .  A
C1596      S1602   1.707       .  A
C1596      C1597   1.404       .  A
C1597      C1598   1.404       .  A
C1597      H1606   1.082       .  S
C1598      C1601   1.375       .  A
S1599      C1600   1.724       .  A
C1600      C1601   1.387       .  A
C1601      H1607   1.083       .  S
S1602      C1603   1.724       .  A
C1603      C1604   1.383       .  A
C1604      H1608   1.083       .  S
C1609      N1610   1.357       .  A
C1609      N1614   1.347       .  A
C1609      C1868   1.462       .  S
N1610      C1611   1.363       .  A
C1611      N1612   1.360       .  A
C1611      C1839   1.466       .  S
N1612      C1613   1.356       .  A
C1613      N1614   1.347       .  A
C1613      C1855   1.457       .  S
C1615      N1616   1.359       .  A
C1615      N1620   1.364       .  A
C1615      C1823   1.470       .  S
N1616      C1617   1.354       .  A
C1617      N1618   1.353       .  A
C1617      C1788   1.469       .  S
N1618      C1619   1.356       .  A
C1619      N1620   1.360       .  A
C1619      C1804   1.473       .  S
C1621      N1622   1.356       .  A
C1621      N1626   1.360       .  A
C1621      C1756   1.468       .  S
N1622      C1623   1.353       .  A
C1623      N1624   1.353       .  A
C1623      C1743   1.463       .  S
N1624      C1625   1.355       .  A
C1625      N1626   1.360       .  A
C1625      C1772   1.467       .  S
C1627      N1628   1.356       .  A
C1627      N1632   1.363       .  A
C1627      C1708   1.466       .  S
N1628      C1629   1.353       .  A
C1629      N1630   1.352       .  A
C1629      C1695   1.460       .  S
N1630      C1631   1.353       .  A
C1631      N1632   1.360       .  A
C1631      C1727   1.468       .  S
C1633      C1871   1.457       .  S
C1633      O1648   1.260       .  A
C1633      O1635   1.261       .  A
Tb1634     O1656   2.356       .  S
Tb1634     O1645   2.346       .  S
Tb1634     O1638   2.353       .  S
Tb1634     O1655   2.345       .  S
O1635     Tb1639   2.354       .  S
O1636      C1647   1.260       .  A
C1637      C1740   1.462       .  S
C1637      O1642   1.269       .  A
C1637      O1658   1.265       .  A
O1638      C1654   1.257       .  A
Tb1639     O1643   2.305       .  S
Tb1639     O1648   2.341       .  S
Tb1639     O1642   2.352       .  S
Tb1639     O1651   2.320       .  S
O1643      C1653   1.268       .  A
C1644      C1852   1.457       .  S
C1644      O1657   1.271       .  A
C1646      O1655   1.255       .  A
C1647      C1775   1.455       .  S
C1647      O1649   1.261       .  A
O1650      C1653   1.277       .  A
O1651      C1652   1.270       .  A
C1652      C1679   1.459       .  S
C1653      C1946   1.460   1_554  S
C1654      C1836   1.458       .  S
C1654      O1656   1.258       .  A
C1659      C1820   1.466       .  S
C1659      O1674   1.259       .  A
C1659      O1661   1.260       .  A
Tb1660     O1682   2.359       .  S
Tb1660     O1671   2.335       .  S
Tb1660     O1664   2.351       .  S
Tb1660     O1681   2.348       .  S
O1661     Tb1665   2.358       .  S
O1662      C1673   1.257       .  A
C1663      C1692   1.462       .  S
C1663      O1668   1.268       .  A
C1663      O1684   1.268       .  A
O1664      C1680   1.258       .  A
Tb1665     O1669   2.312       .  S
Tb1665     O1674   2.351       .  S
Tb1665     O1668   2.329       .  S
Tb1665     O1677   2.317       .  S
O1669      C1679   1.265       .  A
C1670      C1807   1.470       .  S
C1670      O1683   1.266       .  A
C1672      O1681   1.258       .  A
C1673      C1724   1.464       .  S
C1673      O1675   1.257   1_565  A
O1676      C1679   1.270       .  A
O1677      C1678   1.268       .  A
C1678      C1921   1.463       .  S
C1680      C1791   1.460       .  S
C1680      O1682   1.257       .  A
C1685      S1691   1.703       .  A
C1685      C1690   1.387       .  A
C1685      C1686   1.400       .  A
C1686      C1687   1.401       .  A
C1686      H1697   1.081       .  S
C1687      C1696   1.366       .  A
C1687      C1688   1.387       .  A
C1688      S1694   1.697       .  A
C1688      C1689   1.394       .  A
C1689      C1690   1.395       .  A
C1689      H1698   1.081       .  S
C1690      C1693   1.361       .  A
S1691      C1692   1.723       .  A
C1692      C1693   1.382       .  A
C1693      H1699   1.082       .  S
S1694      C1695   1.719       .  A
C1695      C1696   1.385       .  A
C1696      H1700   1.082       .  S
C1701      S1975   1.701       .  A
C1701      C1706   1.387       .  A
C1701      C1702   1.400       .  A
C1702      C1703   1.400       .  A
C1702      H1981   1.084       .  S
C1703      C1712   1.369       .  A
C1703      C1704   1.388       .  A
C1704      S1710   1.698       .  A
C1704      C1705   1.397       .  A
C1705      C1706   1.397       .  A
C1705      H1714   1.084       .  S
C1706      C1709   1.367       .  A
S1707      C1969   1.706       .  A
S1707      C1976   1.727       .  A
C1708      S1975   1.724       .  A
C1708      C1709   1.382       .  A
C1709      H1715   1.083       .  S
S1710      C1711   1.719       .  A
C1711      C1712   1.383       .  A
C1712      H1984   1.084       .  S
H1713      C1970   1.084       .  S
H1716      C1980   1.084       .  S
C1717      S1723   1.706       .  A
C1717      C1722   1.387       .  A
C1717      C1718   1.402       .  A
C1718      C1719   1.402       .  A
C1718      H1729   1.083       .  S
C1719      C1728   1.371       .  A
C1719      C1720   1.387       .  A
C1720      S1726   1.699       .  A
C1720      C1721   1.398       .  A
C1721      C1722   1.398       .  A
C1721      H1730   1.083       .  S
C1722      C1725   1.367       .  A
S1723      C1724   1.723       .  A
C1724      C1725   1.383       .  A
C1725      H1731   1.083       .  S
S1726      C1727   1.723       .  A
C1727      C1728   1.385       .  A
C1728      H1732   1.083       .  S
C1733      S1739   1.710       .  A
C1733      C1738   1.387       .  A
C1733      C1734   1.401       .  A
C1734      C1735   1.403       .  A
C1734      H1745   1.081       .  S
C1735      C1744   1.366       .  A
C1735      C1736   1.387       .  A
C1736      S1742   1.700       .  A
C1736      C1737   1.394       .  A
C1737      C1738   1.396       .  A
C1737      H1746   1.082       .  S
C1738      C1741   1.359       .  A
S1739      C1740   1.722       .  A
C1740      C1741   1.382       .  A
C1741      H1747   1.083       .  S
S1742      C1743   1.719       .  A
C1743      C1744   1.386       .  A
C1744      H1748   1.082       .  S
C1749      S1755   1.700       .  A
C1749      C1754   1.387       .  A
C1749      C1750   1.398       .  A
C1750      C1751   1.399       .  A
C1750      H1761   1.084       .  S
C1751      C1760   1.369       .  A
C1751      C1752   1.387       .  A
C1752      C1753   1.402       .  A
C1753      C1754   1.402       .  A
C1753      H1762   1.084       .  S
C1754      C1757   1.371       .  A
S1755      C1756   1.721       .  A
C1756      C1757   1.386       .  A
C1757      H1763   1.084       .  S
C1759      C1760   1.383       .  A
C1760      H1764   1.084       .  S
C1765      S1771   1.705       .  A
C1765      C1770   1.386       .  A
C1765      C1766   1.397       .  A
C1766      C1767   1.399       .  A
C1766      H1777   1.084       .  S
C1767      C1776   1.364       .  A
C1767      C1768   1.387       .  A
C1768      S1774   1.706       .  A
C1768      C1769   1.399       .  A
C1769      C1770   1.401       .  A
C1769      H1778   1.083       .  S
C1770      C1773   1.365       .  A
S1771      C1772   1.719       .  A
C1772      C1773   1.387       .  A
C1773      H1779   1.083       .  S
S1774      C1775   1.720       .  A
C1775      C1776   1.380       .  A
C1776      H1780   1.084       .  S
C1781      S1787   1.700       .  A
C1781      C1786   1.387       .  A
C1781      C1782   1.396       .  A
C1782      C1783   1.397       .  A
C1782      H1793   1.082       .  S
C1783      C1792   1.365       .  A
C1783      C1784   1.387       .  A
C1784      S1790   1.707       .  A
C1784      C1785   1.403       .  A
C1785      C1786   1.404       .  A
C1785      H1794   1.082       .  S
C1786      C1789   1.371       .  A
S1787      C1788   1.721       .  A
C1788      C1789   1.388       .  A
C1789      H1795   1.082       .  S
S1790      C1791   1.722       .  A
C1791      C1792   1.381       .  A
C1792      H1796   1.083       .  S
C1797      S1803   1.696       .  A
C1797      C1802   1.387       .  A
C1797      C1798   1.394       .  A
C1798      C1799   1.395       .  A
C1798      H1809   1.082       .  S
C1799      C1808   1.363       .  A
C1799      C1800   1.386       .  A
C1800      S1806   1.714       .  A
C1800      C1801   1.408       .  A
C1801      C1802   1.408       .  A
C1801      H1810   1.082       .  S
C1802      C1805   1.377       .  A
S1803      C1804   1.720       .  A
C1804      C1805   1.391       .  A
C1805      H1811   1.082       .  S
S1806      C1807   1.727       .  A
C1807      C1808   1.382       .  A
C1808      H1812   1.083       .  S
C1813      S1819   1.708       .  A
C1813      C1818   1.386       .  A
C1813      C1814   1.402       .  A
C1814      C1815   1.403       .  A
C1814      H1825   1.083       .  S
C1815      C1824   1.371       .  A
C1815      C1816   1.387       .  A
C1816      S1822   1.702       .  A
C1816      C1817   1.399       .  A
C1817      C1818   1.400       .  A
C1817      H1826   1.082       .  S
C1818      C1821   1.367       .  A
S1819      C1820   1.722       .  A
C1820      C1821   1.385       .  A
C1821      H1827   1.083       .  S
S1822      C1823   1.723       .  A
C1823      C1824   1.386       .  A
C1824      H1828   1.083       .  S
C1829      S1835   1.701       .  A
C1829      C1834   1.387       .  A
C1829      C1830   1.397       .  A
C1830      C1831   1.398       .  A
C1830      H1841   1.083       .  S
C1831      C1840   1.365       .  A
C1831      C2100   1.387       .  A
C1832      S1838   1.706       .  A
C1832      C2099   1.387       .  A
C1832      C1833   1.402       .  A
C1833      C2102   1.403       .  A
C1833      H1842   1.082       .  S
C1834      C2101   1.401       .  A
C1834      C2105   1.367       .  A
S1835      C1836   1.719       .  A
C1836      C2105   1.383       .  A
C1837      C2102   1.372       .  A
C1837      C2104   1.386       .  A
C1837      H1843   1.083       .  S
S1838      C2107   1.725       .  A
C1839      S2106   1.723       .  A
C1839      C1840   1.383       .  A
C1840      H1844   1.083       .  S
C1845      S1851   1.693       .  A
C1845      C1850   1.388       .  A
C1845      C1846   1.396       .  A
C1846      C1847   1.396       .  A
C1846      H1857   1.082       .  S
C1847      C1856   1.366       .  A
C1847      C1848   1.388       .  A
C1848      S1854   1.692       .  A
C1848      C1849   1.395       .  A
C1849      C1850   1.395       .  A
C1849      H1858   1.081       .  S
C1850      C1853   1.365       .  A
S1851      C1852   1.723       .  A
C1852      C1853   1.380       .  A
C1853      H1859   1.082       .  S
S1854      C1855   1.721       .  A
C1855      C1856   1.381       .  A
C1856      H1860   1.082       .  S
C1861      S1867   1.693       .  A
C1861      C1866   1.388       .  A
C1861      C1862   1.395       .  A
C1862      C1863   1.395       .  A
C1862      H1873   1.082       .  S
C1863      C1872   1.364       .  A
C1863      C1864   1.388       .  A
C1864      S1870   1.705       .  A
C1864      C1865   1.402       .  A
C1865      C1866   1.401       .  A
C1865      H1874   1.082       .  S
C1866      C1869   1.371       .  A
S1867      C1868   1.721       .  A
C1868      C1869   1.384       .  A
C1869      H1875   1.082       .  S
S1870      C1871   1.721       .  A
C1871      C1872   1.380       .  A
C1872      H1876   1.083       .  S
C1877      N1878   1.359       .  A
C1877      N1882   1.352       .  A
C1877      C2136   1.467       .  S
N1878      C1879   1.362       .  A
C1879      N1880   1.359       .  A
C1879      C2107   1.470       .  S
N1880      C1881   1.356       .  A
C1881      N1882   1.350       .  A
C1881      C2123   1.464       .  S
C1883      N1884   1.357       .  A
C1883      N1888   1.363       .  A
C1883      C2091   1.467       .  S
N1884      C1885   1.353       .  A
C1885      N1886   1.350       .  A
C1885      C2056   1.460       .  S
N1886      C1887   1.352       .  A
C1887      N1888   1.361       .  A
C1887      C2072   1.465       .  S
C1889      N1890   1.355       .  A
C1889      N1894   1.359       .  A
C1889      C2024   1.466       .  S
N1890      C1891   1.354       .  A
C1891      N1892   1.357       .  A
C1891      C2011   1.467       .  S
N1892      C1893   1.359       .  A
C1893      N1894   1.359       .  A
C1893      C2040   1.472       .  S
C1895      N1896   1.357       .  A
C1895      N1900   1.365       .  A
C1895      C1976   1.472       .  S
N1896      C1897   1.354       .  A
C1897      N1898   1.352       .  A
C1897      C1963   1.467       .  S
N1898      C1899   1.355       .  A
C1899      N1900   1.362       .  A
C1899      C1995   1.472       .  S
C1901      C2139   1.460       .  S
C1901      O1916   1.260       .  A
C1901      O1903   1.260       .  A
Tb1902     O1924   2.367       .  S
Tb1902     O1913   2.336   1_655  S
Tb1902     O1906   2.358       .  S
Tb1902     O1923   2.337       .  S
O1903     Tb1907   2.354       .  S
O1904      C1915   1.258       .  A
C1905      C2008   1.469       .  S
C1905      O1910   1.271       .  A
C1905      O1926   1.271       .  A
O1906      C1922   1.256       .  A
Tb1907     O1911   2.321       .  S
Tb1907     O1916   2.343       .  S
Tb1907     O1910   2.343       .  S
Tb1907     O1919   2.343       .  S
O1911      C1921   1.272       .  A
C1912      C2120   1.463       .  S
C1912      O1925   1.265       .  A
C1914      O1923   1.256       .  A
C1915      C2043   1.467       .  S
C1915      O1917   1.260       .  A
O1918      C1921   1.275       .  A
O1919      C1920   1.273       .  A
C1920      C1947   1.465       .  S
C1922      C2104   1.463       .  S
C1922      O1924   1.257       .  A
C1927      C2088   1.464       .  S
C1927      O1942   1.258       .  A
C1927      O1929   1.261       .  A
Tb1928     O1950   2.356       .  S
Tb1928     O1939   2.332       .  S
Tb1928     O1932   2.345       .  S
Tb1928     O1949   2.349       .  S
O1929     Tb1933   2.361       .  S
O1930      C1941   1.257       .  A
C1931      C1960   1.469       .  S
C1931      O1936   1.268       .  A
C1931      O1952   1.269       .  A
O1932      C1948   1.258       .  A
Tb1933     O1937   2.329       .  S
Tb1933     O1942   2.346       .  S
Tb1933     O1936   2.330       .  S
Tb1933     O1945   2.313       .  S
O1937      C1947   1.269       .  A
C1938      C2075   1.461       .  S
C1938      O1951   1.268       .  A
C1940      O1949   1.260       .  A
C1941      C1992   1.463       .  S
C1941      O1943   1.254   1_565  A
O1944      C1947   1.272       .  A
O1945      C1946   1.267       .  A
C1948      C2059   1.455       .  S
C1948      O1950   1.257       .  A
C1953      S1959   1.704       .  A
C1953      C1958   1.387       .  A
C1953      C1954   1.399       .  A
C1954      C1955   1.400       .  A
C1954      H1965   1.081       .  S
C1955      C1964   1.367       .  A
C1955      C1956   1.387       .  A
C1956      S1962   1.704       .  A
C1956      C1957   1.399       .  A
C1957      C1958   1.400       .  A
C1957      H1966   1.081       .  S
C1958      C1961   1.366       .  A
S1959      C1960   1.723       .  A
C1960      C1961   1.386       .  A
C1961      H1967   1.082       .  S
S1962      C1963   1.722       .  A
C1963      C1964   1.385       .  A
C1964      H1968   1.082       .  S
C1969      C1974   1.387       .  A
C1969      C1970   1.404       .  A
C1970      C1971   1.404       .  A
C1971      C1980   1.375       .  A
C1971      C1972   1.388       .  A
C1972      S1978   1.700       .  A
C1972      C1973   1.398       .  A
C1973      C1974   1.398       .  A
C1973      H1982   1.084       .  S
C1974      C1977   1.370       .  A
C1976      C1977   1.383       .  A
C1977      H1983   1.084       .  S
S1978      C1979   1.719       .  A
C1979      C1980   1.387       .  A
C1985      S1991   1.709   1_565  A
C1985      C1990   1.387       .  A
C1985      C1986   1.406       .  A
C1986      C1987   1.406       .  A
C1986      H1997   1.083       .  S
C1987      C1996   1.376       .  A
C1987      C1988   1.388       .  A
C1988      S1994   1.696       .  A
C1988      C1989   1.395       .  A
C1989      C1990   1.395       .  A
C1989      H1998   1.084       .  S
C1990      C1993   1.365       .  A
S1991      C1992   1.725   1_545  A
C1992      C1993   1.380       .  A
C1993      H1999   1.084       .  S
S1994      C1995   1.722       .  A
C1995      C1996   1.389       .  A
C1996      H2000   1.083       .  S
C2001      S2007   1.709       .  A
C2001      C2006   1.386       .  A
C2001      C2002   1.402       .  A
C2002      C2003   1.404       .  A
C2002      H2013   1.082       .  S
C2003      C2012   1.368       .  A
C2003      C2004   1.387       .  A
C2004      S2010   1.702       .  A
C2004      C2005   1.395       .  A
C2005      C2006   1.398       .  A
C2005      H2014   1.082       .  S
C2006      C2009   1.363       .  A
S2007      C2008   1.725       .  A
C2008      C2009   1.384       .  A
C2009      H2015   1.083       .  S
S2010      C2011   1.719       .  A
C2011      C2012   1.388       .  A
C2012      H2016   1.083       .  S
C2017      S2023   1.701       .  A
C2017      C2022   1.387       .  A
C2017      C2018   1.399       .  A
C2018      C2019   1.399       .  A
C2018      H2029   1.084       .  S
C2019      C2028   1.369       .  A
C2019      C2020   1.388       .  A
C2020      C2021   1.398       .  A
C2021      C2022   1.398       .  A
C2021      H2030   1.084       .  S
C2022      C2025   1.367       .  A
S2023      C2024   1.723       .  A
C2024      C2025   1.384       .  A
C2025      H2031   1.084       .  S
C2027      C2028   1.382       .  A
C2028      H2032   1.084       .  S
C2033      S2039   1.707       .  A
C2033      C2038   1.387       .  A
C2033      C2034   1.401       .  A
C2034      C2035   1.402       .  A
C2034      H2045   1.084       .  S
C2035      C2044   1.370       .  A
C2035      C2036   1.387       .  A
C2036      S2042   1.707       .  A
C2036      C2037   1.401       .  A
C2037      C2038   1.402       .  A
C2037      H2046   1.084       .  S
C2038      C2041   1.369       .  A
S2039      C2040   1.723       .  A
C2040      C2041   1.387       .  A
C2041      H2047   1.084       .  S
S2042      C2043   1.721       .  A
C2043      C2044   1.385       .  A
C2044      H2048   1.084       .  S
C2049      S2055   1.696       .  A
C2049      C2054   1.388       .  A
C2049      C2050   1.393       .  A
C2050      C2051   1.395       .  A
C2050      H2061   1.083       .  S
C2051      C2060   1.362       .  A
C2051      C2052   1.387       .  A
C2052      S2058   1.706       .  A
C2052      C2053   1.401       .  A
C2053      C2054   1.402       .  A
C2053      H2062   1.082       .  S
C2054      C2057   1.368       .  A
S2055      C2056   1.719       .  A
C2056      C2057   1.385       .  A
C2057      H2063   1.083       .  S
S2058      C2059   1.722       .  A
C2059      C2060   1.379       .  A
C2060      H2064   1.083       .  S
C2065      S2071   1.697       .  A
C2065      C2070   1.387       .  A
C2065      C2066   1.396       .  A
C2066      C2067   1.397       .  A
C2066      H2077   1.083       .  S
C2067      C2076   1.363       .  A
C2067      C2068   1.387       .  A
C2068      S2074   1.705       .  A
C2068      C2069   1.400       .  A
C2069      C2070   1.401       .  A
C2069      H2078   1.082       .  S
C2070      C2073   1.370       .  A
S2071      C2072   1.723       .  A
C2072      C2073   1.384       .  A
C2073      H2079   1.082       .  S
S2074      C2075   1.721       .  A
C2075      C2076   1.383       .  A
C2076      H2080   1.084       .  S
C2081      S2087   1.708       .  A
C2081      C2086   1.387       .  A
C2081      C2082   1.401       .  A
C2082      C2083   1.402       .  A
C2082      H2093   1.083       .  S
C2083      C2092   1.370       .  A
C2083      C2084   1.387       .  A
C2084      S2090   1.700       .  A
C2084      C2085   1.397       .  A
C2085      C2086   1.398       .  A
C2085      H2094   1.083       .  S
C2086      C2089   1.365       .  A
S2087      C2088   1.721       .  A
C2088      C2089   1.384       .  A
C2089      H2095   1.083       .  S
S2090      C2091   1.722       .  A
C2091      C2092   1.386       .  A
C2092      H2096   1.083       .  S
C2097      S2103   1.701       .  A
C2097      C2102   1.387       .  A
C2097      C2098   1.398       .  A
C2098      C2099   1.398       .  A
C2098      H2109   1.082       .  S
C2099      C2108   1.368       .  A
C2100      S2106   1.705       .  A
C2100      C2101   1.400       .  A
C2101      H2110   1.083       .  S
S2103      C2104   1.719       .  A
C2105      H2111   1.083       .  S
C2107      C2108   1.384       .  A
C2108      H2112   1.083       .  S
C2113      S2119   1.702       .  A
C2113      C2118   1.387       .  A
C2113      C2114   1.399       .  A
C2114      C2115   1.399       .  A
C2114      H2125   1.081       .  S
C2115      C2124   1.367       .  A
C2115      C2116   1.387       .  A
C2116      S2122   1.700       .  A
C2116      C2117   1.398       .  A
C2117      C2118   1.399       .  A
C2117      H2126   1.081       .  S
C2118      C2121   1.367       .  A
S2119      C2120   1.721       .  A
C2120      C2121   1.383       .  A
C2121      H2127   1.082       .  S
S2122      C2123   1.722       .  A
C2123      C2124   1.383       .  A
C2124      H2128   1.082       .  S
C2129      S2135   1.697       .  A
C2129      C2134   1.387       .  A
C2129      C2130   1.396       .  A
C2130      C2131   1.396       .  A
C2130      H2141   1.082       .  S
C2131      C2140   1.365       .  A
C2131      C2132   1.387       .  A
C2132      S2138   1.706       .  A
C2132      C2133   1.402       .  A
C2133      C2134   1.402       .  A
C2133      H2142   1.082       .  S
C2134      C2137   1.372       .  A
S2135      C2136   1.722       .  A
C2136      C2137   1.386       .  A
C2137      H2143   1.083       .  S
S2138      C2139   1.722       .  A
C2139      C2140   1.381       .  A
C2140      H2144   1.083       .  S
