geometry optimzed in LAMMPS
_audit_creation_date              2020-12-01 
_audit_creation_method            'lammps2cif' 
_symmetry_space_group_name_H-M    'P1' 
_symmetry_Int_Tables_number       1 
_symmetry_cell_setting            triclinic 
loop_ 
_symmetry_equiv_pos_as_xyz 
  x,y,z 
_cell_length_a                    36.22239515 
_cell_length_b                    34.93499712461586 
_cell_length_c                    35.60750835087341 
_cell_angle_alpha                 90.66026714831128 
_cell_angle_beta                  90.11058080867646 
_cell_angle_gamma                 89.85112285050755 
loop_ 
_atom_site_label 
_atom_site_type_symbol 
_atom_site_fract_x 
_atom_site_fract_y 
_atom_site_fract_z 
_atom_site_charge 
N1          N  0.14846466  0.84588132  0.48549499    -0.03300
C2          C  0.13790197  0.82620281  0.51662866    -0.00700
C3          C  0.11567569  0.79555435  0.50551139    -0.23600
C4          C  0.12309231  0.78948191  0.46843114    -0.23800
C5          C  0.14899205  0.81697273  0.45908604    -0.00800
H6          H  0.10472539  0.77333864  0.52321920     0.13000
H7          H  0.11888443  0.76232260  0.45409789     0.13000
N8          N  0.93912368  0.01323342  0.50977320    -0.03300
C9          C  0.90964495  0.00408225  0.53178266    -0.00700
C10         C  0.88671066  0.97931352  0.51218501    -0.23600
C11         C  0.89589155  0.98362861  0.47529529    -0.23800
C12         C  0.92420415  0.01045621  0.47492707    -0.00800
H13         H  0.86095863  0.96743545  0.52200124     0.13000
H14         H  0.87727632  0.97668285  0.45240453     0.13000
N15         N  0.97414663  0.82147727  0.49315863    -0.03300
C16         C  0.98415376  0.79708092  0.52098962    -0.00700
C17         C  0.00606440  0.76813931  0.50609539    -0.23600
C18         C  0.99930139  0.76826938  0.46820799    -0.23800
C19         C  0.97517297  0.79859145  0.46229221    -0.00800
H20         H  0.01561793  0.74316083  0.52103776     0.13000
H21         H  0.00377468  0.74388894  0.44972421     0.13000
N22         N  0.56000690  0.85002144  0.07326880    -0.03300
C23         C  0.53621966  0.81961727  0.07118171    -0.00700
C24         C  0.55232433  0.78949252  0.05174348    -0.23600
C25         C  0.58858556  0.79869072  0.04789547    -0.23800
C26         C  0.59351190  0.83323627  0.06696566    -0.00800
H27         H  0.54105081  0.76100756  0.04812309     0.13000
H28         H  0.60975830  0.77761822  0.04168277     0.13000
N29         N  0.95903977  0.42856165  0.08170615    -0.03300
C30         C  0.93339021  0.45669897  0.07657651    -0.00700
C31         C  0.90004803  0.44118765  0.06545879    -0.23600
C32         C  0.90281907  0.40291452  0.07133076    -0.23800
C33         C  0.93856894  0.39580512  0.08362221    -0.00800
H34         H  0.87407533  0.45642903  0.06313598     0.13000
H35         H  0.87943577  0.38376282  0.07291481     0.13000
N36         N  0.97002931  0.46226870  0.89301777    -0.03300
C37         C  0.97623489  0.43420792  0.86678989    -0.00700
C38         C  0.98475308  0.45020953  0.83256396    -0.23600
C39         C  0.97704993  0.48824351  0.83586403    -0.23800
C40         C  0.96552350  0.49448843  0.87248685    -0.00800
H41         H  0.98718635  0.43505860  0.80597142     0.13000
H42         H  0.97395192  0.50752990  0.81248927     0.13000
N43         N  0.53378487  0.08173304  0.92365475    -0.03300
C44         C  0.50649668  0.10862263  0.92641283    -0.00700
C45         C  0.52060639  0.14107137  0.94418860    -0.23600
C46         C  0.55784039  0.13598016  0.94709074    -0.23800
C47         C  0.56565469  0.10118831  0.93018527    -0.00800
H48         H  0.50790207  0.16897633  0.94649382     0.13000
H49         H  0.57721162  0.15913678  0.95168855     0.13000
N50         N  0.14915336  0.46115443  0.89784284    -0.03300
C51         C  0.14476103  0.48371813  0.86698815    -0.00700
C52         C  0.11825462  0.46706175  0.84376406    -0.23600
C53         C  0.11613588  0.42967765  0.85446846    -0.23800
C54         C  0.14185059  0.42572380  0.88323322    -0.00800
H55         H  0.10899412  0.47739535  0.81679259     0.13000
H56         H  0.10624675  0.40725519  0.83583433     0.13000
N57         N  0.54540728  0.88905568  0.88056569    -0.03300
C58         C  0.51160544  0.89379078  0.86461403    -0.00700
C59         C  0.51523196  0.91232410  0.83064284    -0.23600
C60         C  0.55179051  0.91044676  0.82169366    -0.23800
C61         C  0.56912202  0.89166985  0.85104360    -0.00800
H62         H  0.49360512  0.91654372  0.81004683     0.13000
H63         H  0.56257931  0.91391354  0.79359566     0.13000
N64         N  0.07132961  0.34106813  0.40275983    -0.03300
C65         C  0.10445388  0.32318386  0.39595306    -0.00700
C66         C  0.10678920  0.29038269  0.41745145    -0.23600
C67         C  0.07153760  0.28216491  0.42790264    -0.23800
C68         C  0.04954778  0.31113643  0.41338763    -0.00800
H69         H  0.12846773  0.26902010  0.41571314     0.13000
H70         H  0.06275906  0.25382937  0.43594028     0.13000
O71         O  0.25122228  0.16222072  0.27521213    -0.88200
C72         C  0.28269288  0.27625021  0.27419966     0.87800
Mg73       Mg  0.28328012  0.11892887  0.30311566     1.58100
O74         O  0.29343837  0.22476449  0.18843503    -0.87900
O75         O  0.22424863  0.17864801  0.22253089    -0.75200
C76         C  0.44471412  0.14453216  0.23044691     0.92900
O77         O  0.29576557  0.20844138  0.34218119    -0.75100
O78         O  0.43087767  0.12628946  0.25753208    -0.82600
Mg79       Mg  0.24111273  0.21269753  0.30922469     1.58000
C80         C  0.39699777  0.24515643  0.13336612     0.92800
O81         O  0.18473305  0.21990036  0.28199591    -0.80800
H82         H  0.27324217  0.19945361  0.14109641    -0.06200
C83         C  0.38346452  0.23781306  0.25517764     0.87800
O84         O  0.30994176  0.10121717  0.24631853    -0.75300
O85         O  0.26759741  0.24572071  0.26567164    -0.88100
O86         O  0.36738607  0.26256665  0.14249311    -0.80900
C87         C  0.26356690  0.31632680  0.16914292     0.92900
C88         C  0.17469125  0.25267095  0.27087589     0.92800
Mg89       Mg  0.37772269  0.17962644  0.19291983     1.58000
O90         O  0.43218852  0.17732565  0.22323039    -0.80800
O91         O  0.32426461  0.18102166  0.15704829    -0.75100
O92         O  0.25104508  0.30474193  0.20022503    -0.80900
O93         O  0.21294393  0.17729958  0.35371324    -0.82600
O94         O  0.36792778  0.08459264  0.29902334    -0.80900
C95         C  0.29577334  0.20187436  0.16090958     0.87200
O96         O  0.35025212  0.14575549  0.23505256    -0.88100
O97         O  0.36556854  0.22983671  0.22645197    -0.88200
O98         O  0.39096780  0.21260994  0.27980504    -0.75300
Mg99       Mg  0.23927812  0.24237307  0.21273634     1.58000
O100        O  0.29742311  0.31138293  0.16129767    -0.82600
H101        H  0.22096050  0.12535594  0.24473638    -0.06400
O102        O  0.32531140  0.16230099  0.31352650    -0.87900
H103        H  0.34626465  0.18936304  0.35856994    -0.06200
H104        H  0.34202666  0.10183217  0.19947550    -0.06400
C105        C  0.32355681  0.18645905  0.33901171     0.87200
C106        C  0.23180992  0.15403950  0.24761653     0.87800
C107        C  0.33453253  0.11588789  0.22558433     0.87800
H108        H  0.39321620  0.26676990  0.25935150    -0.06300
O109        O  0.30680039  0.29105056  0.25290003    -0.75400
Mg110      Mg  0.37802748  0.14766555  0.28789164     1.58000
H111        H  0.27489232  0.29090101  0.29989850    -0.06300
C112        C  0.22188473  0.14599709  0.36922581     0.92800
O113        O  0.31963662  0.07763101  0.33595269    -0.82600
C114        C  0.35355736  0.07184643  0.32887810     0.92900
O115        O  0.18856430  0.26643612  0.24147327    -0.82600
Mg116      Mg  0.33437464  0.27222017  0.19676872     1.58200
O117        O  0.24972610  0.12647402  0.35817748    -0.80900
O118        O  0.40718703  0.21503161  0.15008387    -0.82600
N119        N  0.45676045  0.94350102  0.40759602    -0.03300
C120        C  0.46278171  0.92765234  0.37294585    -0.00700
C121        C  0.48673914  0.95019531  0.35285184    -0.23600
C122        C  0.48660408  0.98477762  0.37117533    -0.23800
C123        C  0.46116523  0.98131251  0.40034977    -0.00800
H124        H  0.49626097  0.94529465  0.32441207     0.13000
H125        H  0.49485511  0.01099059  0.35765435     0.13000
O126        O  0.34112211  0.72957495  0.29185117    -0.88200
C127        C  0.22972230  0.71418831  0.27481918     0.87800
Mg128      Mg  0.37842633  0.75382385  0.25100836     1.58100
O129        O  0.28722393  0.63187148  0.27771494    -0.87900
O130        O  0.33453079  0.68441964  0.33302472    -0.75200
C131        C  0.35245343  0.64641073  0.10472661     0.92900
O132        O  0.28925962  0.78152805  0.24049794    -0.75100
O133        O  0.36539237  0.67940644  0.11186270    -0.82600
Mg134      Mg  0.29231405  0.76270755  0.30269208     1.58000
C135        C  0.26314717  0.55669674  0.18834790     0.92800
O136        O  0.29265512  0.75067603  0.36549769    -0.80800
H137        H  0.32158699  0.59511141  0.30278010    -0.06200
C138        C  0.26488117  0.67454110  0.17265378     0.87800
O139        O  0.40036963  0.69357600  0.23578974    -0.75300
O140        O  0.26000711  0.71180164  0.29056496    -0.88100
O141        O  0.25990710  0.56728393  0.22234207    -0.80900
C142        C  0.19890405  0.61084096  0.31608797     0.92900
C143        C  0.26589532  0.73644218  0.38347825     0.92800
Mg144      Mg  0.32582828  0.62033150  0.18445640     1.58000
O145        O  0.32403197  0.63486216  0.12196626    -0.80800
O146        O  0.33034940  0.60082346  0.24666006    -0.75100
O147        O  0.21583979  0.63924200  0.33071055    -0.80900
O148        O  0.32920511  0.81202724  0.31942369    -0.82600
O149        O  0.40408725  0.74374697  0.15728986    -0.80900
C150        C  0.31323623  0.60882391  0.27704913     0.87200
O151        O  0.35917780  0.67041926  0.19717978    -0.88100
O152        O  0.27788895  0.65377351  0.19719460    -0.88200
O153        O  0.28494298  0.69882876  0.15593965    -0.75300
Mg154      Mg  0.27392075  0.66489157  0.32734534     1.58000
O155        O  0.20550041  0.59971118  0.28264952    -0.82600
H156        H  0.38280237  0.71255105  0.32468245    -0.06400
O157        O  0.33365707  0.75141197  0.21048330    -0.87900
H158        H  0.29970941  0.78811869  0.18484852    -0.06200
H159        H  0.40461901  0.64105305  0.21096463    -0.06400
C160        C  0.30749156  0.77425164  0.21068010     0.87200
C161        C  0.35417518  0.70922740  0.31669445     0.87800
C162        C  0.38870972  0.66711300  0.21415145     0.87800
H163        H  0.23610776  0.67177414  0.16499110    -0.06300
O164        O  0.21781541  0.68709818  0.25405401    -0.75400
Mg165      Mg  0.34627317  0.71783202  0.16077843     1.58000
H166        H  0.21324917  0.73980152  0.27852473    -0.06300
C167        C  0.35637104  0.82605840  0.30200996     0.92800
O168        O  0.41768863  0.77941433  0.20764831    -0.82600
C169        C  0.42362236  0.76903306  0.17381792     0.92900
O170        O  0.25538249  0.70245391  0.37647015    -0.82600
Mg171      Mg  0.24199045  0.62774327  0.23856185     1.58200
O172        O  0.36395517  0.81530532  0.26866715    -0.80900
O173        O  0.28750547  0.57157027  0.16767029    -0.82600
O174        O  0.82997489  0.13307523  0.29901106    -0.88200
C175        C  0.72852570  0.18511056  0.29578424     0.87800
Mg176      Mg  0.87941613  0.16356473  0.31687191     1.58100
O177        O  0.77076283  0.15847059  0.20973480    -0.87900
O178        O  0.80557274  0.09313271  0.25860092    -0.75200
C179        C  0.88919997  0.30293479  0.20023286     0.92900
O180        O  0.80247558  0.20356836  0.35046372    -0.75100
O181        O  0.90285995  0.29548657  0.23222780    -0.82600
Mg182      Mg  0.78470130  0.14055061  0.33801732     1.58000
C183        C  0.76798290  0.24648379  0.12929742     0.92800
O184        O  0.76366690  0.07849913  0.33385379    -0.80800
H185        H  0.79049189  0.11917559  0.17365518    -0.06200
C186        C  0.78831409  0.27143089  0.24238944     0.87800
O187        O  0.90033187  0.16615906  0.25569454    -0.75300
O188        O  0.75143647  0.15926456  0.29152091    -0.88100
O189        O  0.75009576  0.21980131  0.14478433    -0.80900
C190        C  0.67852099  0.14435038  0.19842853     0.92900
C191        C  0.73268312  0.06712046  0.32128761     0.92800
Mg192      Mg  0.83553974  0.23200253  0.18629298     1.58000
O193        O  0.85603667  0.29359340  0.19294161    -0.80800
O194        O  0.81786606  0.16984321  0.17318807    -0.75100
O195        O  0.68772417  0.13253146  0.23078037    -0.80900
O196        O  0.82094610  0.11561054  0.38292613    -0.82600
O197        O  0.93175685  0.23960240  0.29338476    -0.80900
C198        C  0.79260780  0.14789389  0.18506708     0.87200
O199        O  0.86847028  0.21351845  0.23296966    -0.88100
O200        O  0.78983527  0.24116752  0.22419164    -0.88200
O201        O  0.81560936  0.28271842  0.26213331    -0.75300
Mg202      Mg  0.74724896  0.11696398  0.24722585     1.58000
O203        O  0.69127884  0.17565352  0.18620152    -0.82600
H204        H  0.85813517  0.08844559  0.27790573    -0.06400
O205        O  0.84853506  0.21634764  0.31294956    -0.87900
H206        H  0.82860251  0.25508503  0.34951725    -0.06200
H207        H  0.90548368  0.18461500  0.20197021    -0.06400
C208        C  0.82682717  0.22639381  0.33796021     0.87200
C209        C  0.83251424  0.10431228  0.27872843     0.87800
C210        C  0.89197986  0.18819568  0.22883721     0.87800
H211        H  0.76359606  0.28879009  0.24120264    -0.06300
O212        O  0.72055281  0.20739789  0.26903801    -0.75400
Mg213      Mg  0.87355135  0.25739514  0.27554014     1.58000
H214        H  0.71528471  0.18902181  0.32274957    -0.06300
C215        C  0.85338498  0.12653401  0.39032358     0.92800
O216        O  0.92732304  0.19780214  0.33873873    -0.82600
C217        C  0.94072675  0.22845206  0.32606786     0.92900
O218        O  0.72099848  0.07757263  0.28935981    -0.82600
Mg219      Mg  0.73966076  0.21105349  0.20727867     1.58200
O220        O  0.86475578  0.15825729  0.37824507    -0.80900
O221        O  0.80034756  0.25506350  0.13985923    -0.82600
N222        N  0.63624989  0.93621466  0.40494801    -0.03300
C223        C  0.63709625  0.91115029  0.37522787    -0.00700
C224        C  0.61507451  0.92498287  0.34653895    -0.23600
C225        C  0.60819014  0.96242644  0.35526535    -0.23800
C226        C  0.62734124  0.97001394  0.38838759    -0.00800
H227        H  0.61302876  0.91301084  0.31842368     0.13000
H228        H  0.60035022  0.98306015  0.33424642     0.13000
O229        O  0.78741931  0.64957380  0.19355387    -0.88200
C230        C  0.89596882  0.67824295  0.21366578     0.87800
Mg231      Mg  0.74631694  0.69040447  0.17481805     1.58100
O232        O  0.83734333  0.65805944  0.29065535    -0.87900
O233        O  0.79881211  0.60247705  0.23127726    -0.75200
C234        C  0.75177936  0.82792745  0.29947713     0.92900
O235        O  0.83303624  0.71566334  0.15284138    -0.75100
O236        O  0.74196835  0.82236918  0.26560065    -0.82600
Mg237      Mg  0.83775151  0.65011584  0.16144695     1.58000
C238        C  0.85389989  0.74343957  0.37271605     0.92800
O239        O  0.84611854  0.58549232  0.16359651    -0.80800
H240        H  0.80771846  0.62321036  0.32303381    -0.06200
C241        C  0.84644615  0.77329221  0.26565331     0.87800
O242        O  0.72145666  0.69432554  0.23460007    -0.75300
O243        O  0.86814420  0.65803259  0.21316537    -0.88100
O244        O  0.85727512  0.70991468  0.35948270    -0.80900
C245        C  0.92709596  0.62685075  0.31359613     0.92900
C246        C  0.87215926  0.56612568  0.17808135     0.92800
Mg247      Mg  0.78755544  0.74501506  0.31621422     1.58000
O248        O  0.77875345  0.80979781  0.31364232    -0.80800
O249        O  0.79197414  0.67917455  0.32583644    -0.75100
O250        O  0.91567519  0.61182821  0.28291817    -0.80900
O251        O  0.80363245  0.63653623  0.10950202    -0.82600
O252        O  0.70608587  0.77744751  0.19965052    -0.80900
C253        C  0.81231367  0.65203486  0.31338450     0.87200
O254        O  0.75618803  0.73517366  0.26511006    -0.88100
O255        O  0.83629854  0.74376175  0.28112069    -0.88200
O256        O  0.82491391  0.79110697  0.24375197    -0.75300
Mg257      Mg  0.85785409  0.61346613  0.25380210     1.58000
O258        O  0.91565376  0.65931663  0.32463245    -0.82600
H259        H  0.75043509  0.60831751  0.20279079    -0.06400
O260        O  0.78545962  0.73516584  0.18583251    -0.87900
H261        H  0.81558523  0.77102967  0.15507213    -0.06200
H262        H  0.71273435  0.71002641  0.28905654    -0.06400
C263        C  0.81126446  0.74199689  0.16425138     0.87200
C264        C  0.77752568  0.61982045  0.20876666     0.87800
C265        C  0.72945957  0.71330069  0.26418976     0.87800
H266        H  0.87389314  0.78420500  0.27093113    -0.06300
O267        O  0.90416883  0.69796040  0.24256613    -0.75400
Mg268      Mg  0.76523024  0.77930835  0.22378065     1.58000
H269        H  0.91324193  0.67960378  0.18899114    -0.06300
C270        C  0.77416431  0.65281205  0.09884602     0.92800
O271        O  0.70719133  0.73526935  0.15277696    -0.82600
C272        C  0.69620844  0.76681588  0.16686868     0.92900
O273        O  0.88190481  0.57117154  0.21205841    -0.82600
Mg274      Mg  0.87679287  0.70269899  0.30066431     1.58200
O275        O  0.76389121  0.68413513  0.11385866    -0.80900
O276        O  0.82426982  0.76154236  0.36646611    -0.82600
N277        N  0.05838396  0.54505148  0.41782709    -0.03300
C278        C  0.08945414  0.56698633  0.41661968    -0.00700
C279        C  0.08101162  0.60500426  0.42359208    -0.23600
C280        C  0.04365136  0.60731676  0.42673375    -0.23800
C281        C  0.03004134  0.57094912  0.41966138    -0.00800
H282        H  0.09935062  0.62919435  0.42053306     0.13000
H283        H  0.02814507  0.63383273  0.42557580     0.13000
N284        N  0.48748815  0.33284197  0.99630340    -0.03300
C285        C  0.49308540  0.30177834  0.01865203    -0.00700
C286        C  0.49811302  0.26912170  0.99685024    -0.23600
C287        C  0.49101450  0.27908332  0.96072813    -0.23800
C288        C  0.48329597  0.31786955  0.96116932    -0.00800
H289        H  0.49865917  0.23990243  0.00667958     0.13000
H290        H  0.48606034  0.25911999  0.93778428     0.13000
O291        O  0.26684178  0.25307223  0.71736284    -0.88200
C292        C  0.28035991  0.22875076  0.83019708     0.87800
Mg293      Mg  0.24715664  0.20982276  0.67737732     1.58100
O294        O  0.35767631  0.24424083  0.77094040    -0.87900
O295        O  0.30439801  0.30058140  0.72816675    -0.75200
C296        C  0.36246444  0.06939151  0.69172005     0.92900
O297        O  0.21886114  0.19265896  0.76365887    -0.75100
O298        O  0.32970771  0.07498090  0.68028605    -0.82600
Mg299      Mg  0.23119910  0.25814429  0.76612780     1.58000
C300        C  0.43563163  0.15904858  0.79151118     0.92800
O301        O  0.23929159  0.32304900  0.77290195    -0.80800
H302        H  0.39014035  0.27612786  0.73846081    -0.06200
C303        C  0.32911481  0.13016970  0.78526195     0.87800
O304        O  0.30543855  0.20109209  0.65249306    -0.75300
O305        O  0.28144686  0.24675740  0.79974115    -0.88100
O306        O  0.42321418  0.19287560  0.79166454    -0.80900
C307        C  0.37757217  0.27956688  0.86132076     0.92900
C308        C  0.25109208  0.34026962  0.80223850     0.92800
Mg309      Mg  0.38066117  0.15322162  0.72474131     1.58000
O310        O  0.37496808  0.08811667  0.71979856    -0.80800
O311        O  0.39152924  0.21912880  0.72587211    -0.75100
O312        O  0.34677470  0.29239555  0.84993200    -0.80900
O313        O  0.18449221  0.27479441  0.72732390    -0.82600
O314        O  0.26798566  0.11923207  0.64095770    -0.80900
C315        C  0.37998718  0.24790396  0.74495320     0.87200
O316        O  0.33188614  0.16227121  0.69164758    -0.88100
O317        O  0.34566344  0.15853170  0.77383711    -0.88200
O318        O  0.30751986  0.11157395  0.76370238    -0.75300
Mg319      Mg  0.32386143  0.29174943  0.78960348     1.58000
O320        O  0.38979603  0.24730927  0.85045379    -0.82600
H321        H  0.27859487  0.29161113  0.67801268    -0.06400
O322        O  0.25424873  0.16757625  0.71987268    -0.87900
H323        H  0.21992858  0.13578609  0.75051191    -0.06200
H324        H  0.35790092  0.18123523  0.64599273    -0.06400
C325        C  0.23079323  0.16391064  0.74480117     0.87200
C326        C  0.28300245  0.28189351  0.70638297     0.87800
C327        C  0.33300913  0.18124924  0.66269774     0.87800
H328        H  0.33321386  0.12092608  0.81384530    -0.06300
O329        O  0.30803564  0.20911951  0.84054033    -0.75400
Mg330      Mg  0.28968158  0.12029429  0.70191807     1.58000
H331        H  0.25561201  0.22947110  0.84710801    -0.06300
C332        C  0.17683907  0.25572035  0.69794778     0.92800
O333        O  0.22346823  0.16259751  0.64031926    -0.82600
C334        C  0.23646553  0.13047367  0.62994492     0.92900
O335        O  0.28431306  0.33621628  0.81272730    -0.82600
Mg336      Mg  0.36587343  0.20157291  0.81322438     1.58200
O337        O  0.18841987  0.22154335  0.69475513    -0.80900
O338        O  0.42922397  0.13826588  0.76299965    -0.82600
N339        N  0.45762131  0.93096908  0.60875944    -0.03300
C340        C  0.45847006  0.90459523  0.63692851    -0.00700
C341        C  0.47854909  0.91894572  0.66710591    -0.23600
C342        C  0.48500146  0.95645725  0.65995619    -0.23800
C343        C  0.46640649  0.96450506  0.62689736    -0.00800
H344        H  0.48096077  0.90686175  0.69481091     0.13000
H345        H  0.49247438  0.97682428  0.68179922     0.13000
O346        O  0.32831735  0.74921273  0.78659218    -0.88200
C347        C  0.33197373  0.72639063  0.67204668     0.87800
Mg348      Mg  0.35415313  0.71351255  0.82861301     1.58100
O349        O  0.24430616  0.71957412  0.71516753    -0.87900
O350        O  0.27927002  0.78208977  0.77020306    -0.75200
C351        C  0.27108520  0.55558669  0.79411835     0.92900
O352        O  0.39493223  0.70411551  0.74106579    -0.75100
O353        O  0.29990905  0.56483289  0.81216042    -0.82600
Mg354      Mg  0.36398140  0.76257825  0.74022604     1.58000
C355        C  0.18780220  0.61744558  0.68567551     0.92800
O356        O  0.33789275  0.82040011  0.73688186    -0.80800
H357        H  0.19946608  0.74131953  0.74042471    -0.06200
C358        C  0.30422408  0.61907865  0.70426350     0.87800
O359        O  0.29658164  0.68854976  0.84323123    -0.75300
O360        O  0.32240718  0.74129306  0.70198503    -0.88100
O361        O  0.19673468  0.65062252  0.67468498    -0.80900
C362        C  0.23291318  0.75469078  0.62510630     0.92900
C363        C  0.33286927  0.83397163  0.70447416     0.92800
Mg364      Mg  0.24202553  0.62819565  0.75728484     1.58000
O365        O  0.26653097  0.56914795  0.76161984    -0.80800
O366        O  0.21215451  0.68677254  0.75525871    -0.75100
O367        O  0.25919569  0.77141754  0.64223218    -0.80900
O368        O  0.40331876  0.78828031  0.78148647    -0.82600
O369        O  0.34636872  0.62355249  0.85692911    -0.80900
C370        C  0.21787727  0.71714888  0.73685625     0.87200
O371        O  0.28367621  0.65041702  0.79616922    -0.88100
O372        O  0.27874118  0.64141098  0.71220310    -0.88200
O373        O  0.32607625  0.60643972  0.72945682    -0.75300
Mg374      Mg  0.27114722  0.77364386  0.70549532     1.58000
O375        O  0.22574758  0.71963750  0.63071014    -0.82600
H376        H  0.29845935  0.77924955  0.82390068    -0.06400
O377        O  0.36218529  0.67164693  0.78154879    -0.87900
H378        H  0.40771666  0.64954634  0.75618177    -0.06200
H379        H  0.24859012  0.65855919  0.83889260    -0.06400
C380        C  0.38940112  0.67380274  0.75962058     0.87200
C381        C  0.30205083  0.77035368  0.79495693     0.87800
C382        C  0.27487383  0.66547086  0.82637633     0.87800
H383        H  0.30774512  0.60966677  0.67546360    -0.06300
O384        O  0.31127392  0.70234068  0.65549886    -0.75400
Mg385      Mg  0.33382143  0.61671543  0.79391839     1.58000
H386        H  0.35826401  0.73384855  0.65984517    -0.06300
C387        C  0.41817562  0.77560741  0.81104837     0.92800
O388        O  0.38414617  0.67207852  0.86729998    -0.82600
C389        C  0.37591163  0.63703876  0.87125285     0.92900
O390        O  0.30187662  0.82829041  0.68920284    -0.82600
Mg391      Mg  0.25392511  0.67845464  0.67046968     1.58200
O392        O  0.41110145  0.74230371  0.82302128    -0.80900
O393        O  0.20220060  0.60267061  0.71465726    -0.82600
N394        N  0.04877396  0.51847508  0.61350213    -0.03300
C395        C  0.08383010  0.51294404  0.62649823    -0.00700
C396        C  0.08277114  0.49348464  0.66006322    -0.23600
C397        C  0.04732866  0.49631320  0.67253931    -0.23800
C398        C  0.02743675  0.51514426  0.64489558    -0.00800
H399        H  0.10610753  0.48818406  0.67838292     0.13000
H400        H  0.03941200  0.49208566  0.70146656     0.13000
N401        N  0.04664849  0.32558344  0.58677814    -0.03300
C402        C  0.07518249  0.30036944  0.58564525    -0.00700
C403        C  0.06458979  0.26688439  0.56756230    -0.23600
C404        C  0.02729264  0.26937688  0.56292815    -0.23800
C405        C  0.01643643  0.30270175  0.58144451    -0.00800
H406        H  0.08051359  0.24079136  0.56446253     0.13000
H407        H  0.01011891  0.24458398  0.55748004     0.13000
O408        O  0.85130432  0.15083801  0.72389385    -0.88200
C409        C  0.82875436  0.26563897  0.72894978     0.87800
Mg410      Mg  0.80955288  0.11011937  0.70569554     1.58100
O411        O  0.84400575  0.21759505  0.81498428    -0.87900
O412        O  0.89530320  0.16489229  0.76354832    -0.75200
C413        C  0.67497382  0.14310307  0.82177988     0.92900
O414        O  0.79466227  0.19667819  0.67069473    -0.75100
O415        O  0.67997247  0.12820835  0.78945456    -0.82600
Mg416      Mg  0.85724327  0.19735145  0.68543525     1.58000
C417        C  0.76131634  0.24585152  0.89456793     0.92800
O418        O  0.91912180  0.20117014  0.69376760    -0.80800
H419        H  0.87505275  0.18754066  0.85072222    -0.06200
C420        C  0.73547024  0.23165157  0.78353765     0.87800
O421        O  0.80025079  0.09076291  0.76678109    -0.75300
O422        O  0.84701229  0.23603488  0.73262234    -0.88100
O423        O  0.79298002  0.25240893  0.88075942    -0.80900
C424        C  0.87799297  0.31295221  0.82115401     0.92900
C425        C  0.93526431  0.23245132  0.70145627     0.92800
Mg426      Mg  0.75759303  0.17311758  0.83911044     1.58000
O427        O  0.69515174  0.17035123  0.83358232    -0.80800
O428        O  0.82050523  0.17386524  0.85142429    -0.75100
O429        O  0.88979563  0.29319763  0.79343690    -0.80900
O430        O  0.87256779  0.15322536  0.64040721    -0.82600
O431        O  0.72091308  0.08154307  0.72713868    -0.80900
C432        C  0.84783930  0.19304964  0.83945878     0.87200
O433        O  0.76542746  0.13557372  0.79086434    -0.88100
O434        O  0.76226205  0.22093616  0.80210245    -0.88200
O435        O  0.71835459  0.20859969  0.76192286    -0.75300
Mg436      Mg  0.88814725  0.22989952  0.77638250     1.58000
O437        O  0.84744067  0.30533162  0.83684260    -0.82600
H438        H  0.88692412  0.11128391  0.74221167    -0.06400
O439        O  0.76997586  0.15615522  0.70957677    -0.87900
H440        H  0.73976815  0.18433314  0.67165715    -0.06200
H441        H  0.78150234  0.09018050  0.82058112    -0.06400
C442        C  0.76673404  0.17916327  0.68366482     0.87200
C443        C  0.87797947  0.14082963  0.74307309     0.87800
C444        C  0.78212299  0.10496862  0.79408533     0.87800
H445        H  0.72652773  0.26115158  0.78560584    -0.06300
O446        O  0.81073962  0.27991505  0.75634628    -0.75400
Mg447      Mg  0.72460598  0.14426846  0.74722833     1.58000
H448        H  0.82795258  0.27953472  0.70198727    -0.06300
C449        C  0.85321331  0.12453774  0.63097463     0.92800
O450        O  0.76417373  0.07107818  0.68422857    -0.82600
C451        C  0.73222533  0.06475803  0.69733453     0.92900
O452        O  0.93124321  0.24777091  0.73360993    -0.82600
Mg453      Mg  0.80327161  0.26264387  0.81843605     1.58200
O454        O  0.82073723  0.12121695  0.64381196    -0.80900
O455        O  0.74447320  0.21506409  0.88653580    -0.82600
N456        N  0.63582332  0.93448447  0.60631081    -0.03300
C457        C  0.63645969  0.90897680  0.63502469    -0.00700
C458        C  0.61042795  0.91998260  0.66166707    -0.23600
C459        C  0.60290225  0.95755419  0.65467865    -0.23800
C460        C  0.62518624  0.96731709  0.62447023    -0.00800
H461        H  0.60588900  0.90658457  0.68854143     0.13000
H462        H  0.59236802  0.97674717  0.67618661     0.13000
O463        O  0.83371559  0.65019311  0.73243456    -0.88200
C464        C  0.82927204  0.69131485  0.84171387     0.87800
Mg465      Mg  0.85643788  0.68156124  0.68620293     1.58100
O466        O  0.74454387  0.68022064  0.79169509    -0.87900
O467        O  0.79065762  0.61165729  0.75249178    -0.75200
C468        C  0.76479041  0.83921616  0.70136921     0.92900
O469        O  0.89502548  0.70851145  0.77076132    -0.75100
O470        O  0.79456251  0.82862135  0.68564411    -0.82600
Mg471      Mg  0.86966292  0.64920317  0.78032318     1.58000
C472        C  0.67397384  0.77763182  0.80180561     0.92800
O473        O  0.85222697  0.59010003  0.79388263    -0.80800
H474        H  0.70585727  0.64926422  0.76350178    -0.06200
C475        C  0.79435380  0.78472166  0.79580366     0.87800
O476        O  0.79886571  0.69917601  0.66609515    -0.75300
O477        O  0.82384938  0.67200597  0.81304766    -0.88100
O478        O  0.68707805  0.75089393  0.82170251    -0.80900
C479        C  0.72880299  0.65706710  0.88267513     0.92900
C480        C  0.84754194  0.58189024  0.82802400     0.92800
Mg481      Mg  0.73722601  0.76432065  0.73834325     1.58000
O482        O  0.75608226  0.82561737  0.73289705    -0.80800
O483        O  0.71409799  0.70270997  0.74306390    -0.75100
O484        O  0.76145007  0.64744770  0.87352716    -0.80900
O485        O  0.91340503  0.62063286  0.74469024    -0.82600
O486        O  0.85289472  0.77387796  0.64770877    -0.80900
C487        C  0.72051580  0.67605029  0.76620110     0.87200
O488        O  0.78358536  0.74383634  0.70577460    -0.88100
O489        O  0.76986909  0.76108850  0.78878712    -0.88200
O490        O  0.81773376  0.79460749  0.77103076    -0.75300
Mg491      Mg  0.77818441  0.63168465  0.81378790     1.58000
O492        O  0.71682599  0.69021189  0.87508155    -0.82600
H493        H  0.81209553  0.60898394  0.69969254    -0.06400
O494        O  0.86262340  0.73059531  0.72441304    -0.87900
H495        H  0.90456843  0.76012294  0.74695969    -0.06200
H496        H  0.75052783  0.72854543  0.66318266    -0.06400
C497        C  0.88821220  0.73427671  0.74698416     0.87200
C498        C  0.81224140  0.62325939  0.72678893     0.87800
C499        C  0.77645369  0.72441378  0.67769295     0.87800
H500        H  0.79589272  0.79738092  0.82360644    -0.06300
O501        O  0.80414634  0.71316746  0.85473279    -0.75400
Mg502      Mg  0.83127757  0.78031817  0.70838492     1.58000
H503        H  0.85538957  0.68908260  0.85627584    -0.06300
C504        C  0.92554823  0.62622902  0.71192568     0.92800
O505        O  0.88120980  0.71730948  0.64128712    -0.82600
C506        C  0.87611314  0.75177516  0.63143656     0.92900
O507        O  0.81614204  0.58794720  0.84236565    -0.82600
Mg508      Mg  0.74541475  0.72896294  0.83344232     1.58200
O509        O  0.91469749  0.65504093  0.69322256    -0.80900
O510        O  0.68889856  0.78764711  0.77126794    -0.82600
N511        N  0.45595156  0.52861704  0.99810884    -0.03300
C512        C  0.42410215  0.52517990  0.01848472    -0.00700
C513        C  0.39913860  0.50321207  0.99806916    -0.23600
C514        C  0.41220656  0.50173807  0.96221696    -0.23800
C515        C  0.44363025  0.52450435  0.96211063    -0.00800
H516        H  0.37069523  0.49776952  0.00560608     0.13000
H517        H  0.39461619  0.49533140  0.93835140     0.13000
N518        N  0.67632342  0.36223457  0.01802623    -0.03300
C519        C  0.70382840  0.36864859  0.04337492    -0.00700
C520        C  0.72917644  0.39363685  0.02789542    -0.23600
C521        C  0.72293796  0.39217327  0.99003289    -0.23800
C522        C  0.69421122  0.36629667  0.98472377    -0.00800
H523        H  0.75521472  0.40215677  0.04038290     0.13000
H524        H  0.74387555  0.39951697  0.96971716     0.13000
N525        N  0.65276018  0.54455120  0.00368546    -0.03300
C526        C  0.68684776  0.54025507  0.01968333    -0.00700
C527        C  0.70710064  0.51413594  0.99854337    -0.23600
C528        C  0.68977001  0.51246809  0.96445608    -0.23800
C529        C  0.66102928  0.53912532  0.96673756    -0.00800
H530        H  0.73556269  0.50586840  0.00318173     0.13000
H531        H  0.70391805  0.50292549  0.93929078     0.13000
N532        N  0.54798511  0.05244318  0.10117092    -0.03300
C533        C  0.52480097  0.08340720  0.10280575    -0.00700
C534        C  0.53769061  0.11146116  0.07893062    -0.23600
C535        C  0.57350048  0.10192362  0.07158253    -0.23800
C536        C  0.58077837  0.06977342  0.09326260    -0.00800
H537        H  0.52626351  0.13989399  0.07556154     0.13000
H538        H  0.59339069  0.12277835  0.06214668     0.13000
N539        N  0.14941981  0.44099138  0.09676266    -0.03300
C540        C  0.14892552  0.40384846  0.10784726    -0.00700
C541        C  0.12896223  0.40143326  0.14106085    -0.23600
C542        C  0.12756155  0.43767059  0.15559746    -0.23800
C543        C  0.14560967  0.46055794  0.12996543    -0.00800
H544        H  0.12582208  0.37624568  0.15819616     0.13000
H545        H  0.12271797  0.44438753  0.18494284     0.13000
N546        N  0.12819006  0.05119070  0.49938408    -0.03300
C547        C  0.12710492  0.06513337  0.53529369    -0.00700
C548        C  0.10381406  0.09665387  0.53701477    -0.23600
C549        C  0.09885288  0.10804829  0.50091406    -0.23800
C550        C  0.11923148  0.08279111  0.47874924    -0.00800
H551        H  0.09919175  0.11515462  0.56117136     0.13000
H552        H  0.08826775  0.13581643  0.49303747     0.13000
N553        N  0.10716367  0.94648253  0.48457117    -0.36500
N554        N  0.04233008  0.99500742  0.50732729    -0.57000
N555        N  0.99482164  0.92660856  0.50248260    -0.48200
N556        N  0.05824496  0.87761298  0.48873761    -0.57000
C557        C  0.12305842  0.97934806  0.49674007     0.27100
C558        C  0.13137323  0.91708077  0.48927289     0.27100
C559        C  0.97450197  0.95232958  0.52217510     0.27100
C560        C  0.98201829  0.89107444  0.50994422     0.27100
C561        C  0.06668179  0.01822004  0.48955135     0.35800
C562        C  0.00776946  0.00837169  0.49956999     0.35800
C563        C  0.08727746  0.87122324  0.46586826     0.35800
C564        C  0.02912146  0.85964202  0.47281502     0.35800
C565        C  0.15851749  0.97107131  0.50898064    -0.21700
C566        C  0.16363176  0.93169285  0.50460408    -0.21700
C567        C  0.94952577  0.93228465  0.54414746    -0.21700
C568        C  0.95351452  0.89386282  0.53543316    -0.21700
C569        C  0.04717089  0.04529451  0.46931139    -0.22800
C570        C  0.01031946  0.03920570  0.47576560    -0.22800
C571        C  0.07652100  0.85039262  0.43450653    -0.22800
C572        C  0.03953925  0.84292197  0.43887147    -0.22800
C573        C  0.10613956  0.01609844  0.49394925    -0.18100
C574        C  0.12390087  0.87865154  0.47746196    -0.18100
C575        C  0.99428794  0.85770354  0.49087158    -0.18100
C576        C  0.97437588  0.99232373  0.51379643    -0.18100
H577        H  0.17857656  0.99106038  0.52002358     0.14800
H578        H  0.18845990  0.91621250  0.51127827     0.14800
H579        H  0.92966471  0.94360117  0.56396110     0.14800
H580        H  0.93626453  0.87119313  0.54562203     0.14800
H581        H  0.05767947  0.06627262  0.45007431     0.13100
H582        H  0.98836843  0.05486782  0.46252940     0.13100
H583        H  0.09370607  0.84093608  0.41134917     0.13100
H584        H  0.02256919  0.82785821  0.41861770     0.13100
H585        H  0.08148073  0.94476553  0.47123990     0.26300
H586        H  0.01316283  0.93333391  0.48093180     0.26300
N587        N  0.53657764  0.02175815  0.00573185    -0.36500
N588        N  0.54233192  0.95426049  0.05416275    -0.57000
N589        N  0.55340325  0.90804959  0.98514062    -0.36400
N590        N  0.54166510  0.97587158  0.93866270    -0.57000
C591        C  0.52124252  0.03057590  0.03929532     0.27100
C592        C  0.51842735  0.04204019  0.97925811     0.27100
C593        C  0.54384589  0.88176767  0.01141448     0.27100
C594        C  0.54487597  0.89335448  0.95054276     0.27100
C595        C  0.55122922  0.98330866  0.07829167     0.35800
C596        C  0.55739241  0.92165822  0.06777042     0.35800
C597        C  0.54537145  0.01144935  0.92443801     0.35800
C598        C  0.55711365  0.95125081  0.91374241     0.35800
C599        C  0.49143932  0.05489363  0.03376262    -0.21700
C600        C  0.49004940  0.06256587  0.99592284    -0.21700
C601        C  0.52813693  0.85062290  0.99261717    -0.21700
C602        C  0.52954909  0.85761805  0.95467393    -0.21700
C603        C  0.57236948  0.96921002  0.10736042    -0.22800
C604        C  0.57627748  0.93022027  0.10068289    -0.22800
C605        C  0.56341289  0.00970632  0.89046407    -0.22800
C606        C  0.57155410  0.97179349  0.88399070    -0.22800
C607        C  0.53823365  0.02152607  0.07416895    -0.18100
C608        C  0.53025309  0.04451126  0.94147488    -0.18100
C609        C  0.55179794  0.91093504  0.91532916    -0.18100
C610        C  0.55235277  0.88465963  0.05108204    -0.18100
H611        H  0.47290208  0.06656468  0.05476127     0.14800
H612        H  0.46992285  0.08058455  0.98248267     0.14800
H613        H  0.51501664  0.82578414  0.00401335     0.14800
H614        H  0.51966265  0.83861418  0.93280795     0.14800
H615        H  0.58409730  0.98518681  0.13059090     0.13100
H616        H  0.59271344  0.91106069  0.11724076     0.13100
H617        H  0.56965636  0.03281731  0.87183840     0.13100
H618        H  0.58693868  0.96147071  0.86008210     0.13100
H619        H  0.56130982  0.00676868  0.00185906     0.26300
H620        H  0.56802227  0.93331131  0.99028887     0.26300
N621        N  0.05789077  0.43926099  0.05087494    -0.36500
N622        N  0.11703817  0.46205811  0.99876774    -0.57000
N623        N  0.06057044  0.46425301  0.93981060    -0.36400
N624        N  0.00303037  0.44679730  0.99135434    -0.57000
C625        C  0.08492491  0.45481348  0.07266400     0.27100
C626        C  0.02509332  0.44463208  0.06878969     0.27100
C627        C  0.09028208  0.48367844  0.92754288     0.27100
C628        C  0.03016434  0.47981463  0.92382246     0.27100
C629        C  0.13633145  0.44769896  0.02799725     0.35800
C630        C  0.13782847  0.45690927  0.96745056     0.35800
C631        C  0.98485940  0.42555862  0.01676517     0.35800
C632        C  0.98530748  0.44226925  0.95811409     0.35800
C633        C  0.06838766  0.47197181  0.10391103    -0.21700
C634        C  0.03087866  0.46519285  0.10156397    -0.21700
C635        C  0.07866066  0.51338822  0.90498747    -0.21700
C636        C  0.04082429  0.51084408  0.90237397    -0.21700
C637        C  0.16982987  0.43345621  0.01514227    -0.22800
C638        C  0.17074978  0.43923602  0.97666656    -0.22800
C639        C  0.95596070  0.40653615  0.99893568    -0.22800
C640        C  0.95602292  0.41754681  0.96195002    -0.22800
C641        C  0.12380157  0.44957793  0.06581817    -0.18100
C642        C  0.99064294  0.42994582  0.05617210    -0.18100
C643        C  0.99441463  0.46300739  0.92574845    -0.18100
C644        C  0.12701793  0.46998906  0.93149332    -0.18100
H645        H  0.08124292  0.48885588  0.12585078     0.14800
H646        H  0.01020880  0.47489865  0.12140427     0.14800
H647        H  0.09559807  0.53426988  0.89097272     0.14800
H648        H  0.02384752  0.53029249  0.88658110     0.14800
H649        H  0.19090951  0.41935089  0.03129000     0.13100
H650        H  0.19299367  0.43150179  0.95778265     0.13100
H651        H  0.93667552  0.38654450  0.01056159     0.13100
H652        H  0.93647076  0.40863351  0.94072326     0.13100
H653        H  0.06201357  0.42245036  0.02687577     0.26300
H654        H  0.06169488  0.43817806  0.95411792     0.26300
N655        N  0.57472696  0.38536331  0.01363587    -0.36500
N656        N  0.62129397  0.45078857  0.01810555    -0.57000
N657        N  0.55599967  0.50463051  0.01663899    -0.36400
N658        N  0.50985858  0.43730028  0.00458358    -0.57000
C659        C  0.60859355  0.37034324  0.00646900     0.27100
C660        C  0.54944714  0.36290666  0.99654108     0.27100
C661        C  0.58508303  0.52629364  0.00562274     0.27100
C662        C  0.52469298  0.51954925  0.00171578     0.27100
C663        C  0.64186254  0.42334045  0.03476134     0.35800
C664        C  0.63082828  0.48456541  0.03407916     0.35800
C665        C  0.49439887  0.40247837  0.01086869     0.35800
C666        C  0.48475458  0.46441263  0.01531057     0.35800
C667        C  0.60492762  0.33814653  0.98403753    -0.21700
C668        C  0.56771077  0.33323935  0.97793590    -0.21700
C669        C  0.57201373  0.55554854  0.98324706    -0.21700
C670        C  0.53396218  0.55146343  0.98102444    -0.21700
C671        C  0.66371114  0.43989066  0.06255962    -0.22800
C672        C  0.65658004  0.47852198  0.06216464    -0.22800
C673        C  0.45980877  0.40719983  0.02616127    -0.22800
C674        C  0.45412443  0.44599307  0.03007991    -0.22800
C675        C  0.64196198  0.38458767  0.02174212    -0.18100
C676        C  0.51058065  0.36665630  0.00116071    -0.18100
C677        C  0.48845402  0.50467157  0.00731261    -0.18100
C678        C  0.62243458  0.52003871  0.01700729    -0.18100
H679        H  0.62648490  0.32030933  0.97253499     0.14800
H680        H  0.55618533  0.31041317  0.96114011     0.14800
H681        H  0.58794761  0.57716056  0.96928757     0.14800
H682        H  0.51571107  0.56902097  0.96455695     0.14800
H683        H  0.68272716  0.42635225  0.08164086     0.13100
H684        H  0.66986248  0.49980271  0.07980924     0.13100
H685        H  0.44102002  0.38515994  0.03487609     0.13100
H686        H  0.43044614  0.45826337  0.04397703     0.13100
H687        H  0.56866977  0.40785217  0.03277810     0.26300
H688        H  0.55718686  0.48175979  0.03538708     0.26300
N689        N  0.04406953  0.42901496  0.56013431    -0.36500
N690        N  0.04537790  0.49409274  0.50954295    -0.57000
N691        N  0.06263014  0.44150938  0.44566349    -0.36400
N692        N  0.05348734  0.37368857  0.49633126    -0.57000
C693        C  0.02936288  0.45713705  0.58177883     0.27100
C694        C  0.03401473  0.39490131  0.57466492     0.27100
C695        C  0.05727258  0.47451813  0.42676016     0.27100
C696        C  0.06360513  0.41189239  0.42043056     0.27100
C697        C  0.05059338  0.51143484  0.54370740     0.35800
C698        C  0.05793672  0.51864889  0.48302665     0.35800
C699        C  0.06758233  0.35789306  0.52784986     0.35800
C700        C  0.07778417  0.36534851  0.46858029     0.35800
C701        C  0.00837946  0.44026697  0.60986220    -0.21700
C702        C  0.01152051  0.40099730  0.60538674    -0.21700
C703        C  0.05542367  0.46593814  0.38867488    -0.21700
C704        C  0.05956174  0.42651626  0.38469761    -0.21700
C705        C  0.06636756  0.54686552  0.53890064    -0.22800
C706        C  0.07045208  0.55171647  0.50097600    -0.22800
C707        C  0.10150971  0.34113089  0.52019607    -0.22800
C708        C  0.10796584  0.34604879  0.48268939    -0.22800
C709        C  0.04005131  0.49640815  0.57921186    -0.18100
C710        C  0.04959444  0.35959866  0.56324306    -0.18100
C711        C  0.07146286  0.37317806  0.43015936    -0.18100
C712        C  0.05755217  0.51211803  0.44289441    -0.18100
H713        H  0.99239559  0.45417119  0.63165499     0.14800
H714        H  0.99978898  0.37956582  0.62349272     0.14800
H715        H  0.05287486  0.48609918  0.36598426     0.14800
H716        H  0.06194510  0.41119314  0.35840628     0.14800
H717        H  0.07436224  0.56728538  0.56041168     0.13100
H718        H  0.08292652  0.57660325  0.48904739     0.13100
H719        H  0.12104056  0.32891187  0.53957632     0.13100
H720        H  0.13290018  0.33791827  0.46797405     0.13100
H721        H  0.06447512  0.43285946  0.53991400     0.26300
H722        H  0.06827711  0.43954918  0.47410590     0.26300
N723        N  0.60533474  0.92358945  0.50519055    -0.36500
N724        N  0.54609840  0.93064095  0.44896039    -0.57000
N725        N  0.48693995  0.92345537  0.50713271    -0.36400
N726        N  0.54639766  0.92771601  0.56405407    -0.57000
C727        C  0.62444455  0.93456419  0.47456136     0.27100
C728        C  0.62461191  0.93374357  0.53631744     0.27100
C729        C  0.46828463  0.93694700  0.47712774     0.27100
C730        C  0.46848274  0.93358167  0.53877527     0.27100
C731        C  0.57554297  0.91471427  0.43112413     0.35800
C732        C  0.51547840  0.91547538  0.43270378     0.35800
C733        C  0.57682965  0.91042727  0.57818158     0.35800
C734        C  0.51701405  0.90994392  0.57955546     0.35800
C735        C  0.65722361  0.95141037  0.48626035    -0.21700
C736        C  0.65728516  0.95096867  0.52547938    -0.21700
C737        C  0.43685522  0.95584065  0.48986361    -0.21700
C738        C  0.43686452  0.95347549  0.52893722    -0.21700
C739        C  0.56342937  0.88825597  0.40457833    -0.22800
C740        C  0.52554567  0.88876108  0.40558038    -0.22800
C741        C  0.56667147  0.88056087  0.60113261    -0.22800
C742        C  0.52886570  0.88049494  0.60220017    -0.22800
C743        C  0.61273737  0.92686205  0.43710015    -0.18100
C744        C  0.61319510  0.92472720  0.57330066    -0.18100
C745        C  0.48002082  0.92284218  0.57528927    -0.18100
C746        C  0.47914077  0.92982468  0.43925794    -0.18100
H747        H  0.67891085  0.96234941  0.46854678     0.14800
H748        H  0.67904781  0.96137642  0.54375358     0.14800
H749        H  0.41609437  0.96981248  0.47307826     0.14800
H750        H  0.41609467  0.96497328  0.54774583     0.14800
H751        H  0.57979356  0.86954830  0.38686677     0.13100
H752        H  0.50757721  0.87113792  0.38838676     0.13100
H753        H  0.58444210  0.86054611  0.61547386     0.13100
H754        H  0.51224926  0.86024165  0.61709282     0.13100
H755        H  0.58121196  0.90731255  0.50483437     0.26300
H756        H  0.51025610  0.90576242  0.50592339     0.26300
C757        C  0.70424737  0.62905606  0.90067904    -0.06000
C758        C  0.68628570  0.63886469  0.93414266    -0.17100
C759        C  0.66616568  0.61149807  0.95422064     0.11200
C760        C  0.66536666  0.57280291  0.94101453    -0.05900
C761        C  0.67808119  0.56529821  0.90432856    -0.17100
C762        C  0.69765597  0.59271123  0.88433141     0.11300
S763        S  0.64199419  0.62730430  0.99599118    -0.32100
S764        S  0.71365353  0.57946900  0.83812745    -0.32100
H765        H  0.70691653  0.61575208  0.82297761     0.29300
H766        H  0.65136391  0.66628308  0.99437832     0.29300
H767        H  0.68919034  0.66771196  0.94515771     0.19900
H768        H  0.67515506  0.53688280  0.89218328     0.19900
C769        C  0.67235098  0.89351655  0.64942971    -0.06000
C770        C  0.68444461  0.90535276  0.68549868    -0.17100
C771        C  0.71630262  0.89040267  0.70192213     0.11200
C772        C  0.73770212  0.86360908  0.68176837    -0.05900
C773        C  0.72811944  0.85468070  0.64435103    -0.17100
C774        C  0.69562198  0.86918404  0.62807621     0.11300
S775        S  0.72941398  0.90570447  0.74878277    -0.32100
S776        S  0.68482343  0.85449073  0.58068161    -0.32100
H777        H  0.64660735  0.85166522  0.58646775     0.29300
H778        H  0.69857823  0.92919607  0.75600317     0.29300
H779        H  0.66873359  0.92639430  0.70125848     0.19900
H780        H  0.74456305  0.83412588  0.62860715     0.19900
C781        C  0.74203275  0.27589859  0.91691808    -0.06000
C782        C  0.72274583  0.26604005  0.94942447    -0.17100
C783        C  0.70314641  0.29364837  0.97060038     0.11200
C784        C  0.70320049  0.33271980  0.95918289    -0.05900
C785        C  0.71933760  0.34120568  0.92437249    -0.17100
C786        C  0.73868631  0.31357270  0.90335275     0.11300
S787        S  0.67734671  0.27684543  0.01045237    -0.32100
S788        S  0.75738524  0.32647455  0.85822093    -0.32100
H789        H  0.74767122  0.36546472  0.85952919     0.29300
H790        H  0.69777975  0.24305313  0.01598297     0.29300
H791        H  0.72300781  0.23645423  0.95818461     0.19900
H792        H  0.71800026  0.37030927  0.91433911     0.19900
C793        C  0.70602663  0.04019649  0.67580744    -0.06000
C794        C  0.66912798  0.05257762  0.67305965    -0.17100
C795        C  0.64302521  0.03228675  0.65171094     0.11200
C796        C  0.65321849  0.99757710  0.63364715    -0.05900
C797        C  0.69092610  0.98739029  0.63331774    -0.17100
C798        C  0.71709254  0.00771039  0.65463924     0.11300
S799        S  0.59703476  0.05198573  0.64891945    -0.32100
S800        S  0.76336493  0.98871978  0.65604153    -0.32100
H801        H  0.76890200  0.99694541  0.69441334     0.29300
H802        H  0.58641711  0.03125615  0.61657496     0.29300
H803        H  0.66057206  0.07873314  0.68726139     0.19900
H804        H  0.69983816  0.96152341  0.61894745     0.19900
C805        C  0.99120311  0.29403669  0.61357851    -0.06000
C806        C  0.00676184  0.29141906  0.64975509    -0.17100
C807        C  0.98968632  0.27126268  0.67863159     0.11200
C808        C  0.95574027  0.25289044  0.67178687    -0.05900
C809        C  0.93899211  0.25693567  0.63632116    -0.17100
C810        C  0.95600536  0.27763957  0.60752774     0.11300
S811        S  0.01434093  0.26733919  0.72247819    -0.32100
S812        S  0.93243040  0.28056284  0.56299741    -0.32100
H813        H  0.95122508  0.31320249  0.55048272     0.29300
H814        H  0.00318762  0.22960454  0.72972293     0.29300
H815        H  0.03413654  0.30185243  0.65489035     0.19900
H816        H  0.91224181  0.24408882  0.63105801     0.19900
C817        C  0.99649116  0.54187063  0.65630873    -0.06000
C818        C  0.97579851  0.53225930  0.68824569    -0.17100
C819        C  0.95277101  0.55864919  0.70663963     0.11200
C820        C  0.95057838  0.59704937  0.69400935    -0.05900
C821        C  0.96915105  0.60604424  0.66060758    -0.17100
C822        C  0.99070459  0.57881508  0.64110128     0.11300
S823        S  0.92567591  0.54010622  0.74476345    -0.32100
S824        S  0.00774505  0.59291510  0.59611728    -0.32100
H825        H  0.99346076  0.56009470  0.57814572     0.29300
H826        H  0.89203877  0.55330865  0.72975726     0.29300
H827        H  0.97749346  0.50353558  0.69926248     0.19900
H828        H  0.96606012  0.63434000  0.64883830     0.19900
C829        C  0.44076043  0.55771939  0.93566233    -0.06000
C830        C  0.43060831  0.54888052  0.89843389    -0.17100
C831        C  0.41109315  0.57493869  0.87644517     0.11200
C832        C  0.40132055  0.61111540  0.89157647    -0.05900
C833        C  0.41662401  0.62243255  0.92610507    -0.17100
C834        C  0.43694240  0.59648046  0.94808993     0.11300
S835        S  0.39900408  0.56003202  0.82937009    -0.32100
S836        S  0.45791347  0.61419063  0.99095927    -0.32100
H837        H  0.43920019  0.64949179  0.99269622     0.29300
H838        H  0.40329181  0.59652660  0.81367286     0.29300
H839        H  0.43507762  0.52014124  0.88753196     0.19900
H840        H  0.41162715  0.65128196  0.93632712     0.19900
C841        C  0.11115850  0.54464567  0.62718843    -0.06000
C842        C  0.09935626  0.58038439  0.64149137    -0.17100
C843        C  0.12388079  0.60550231  0.65949735     0.11200
C844        C  0.16117765  0.59478849  0.66340601    -0.05900
C845        C  0.17379673  0.56115512  0.64547947    -0.17100
C846        C  0.14927561  0.53651016  0.62669946     0.11300
S847        S  0.10512484  0.64899617  0.67962110    -0.32100
S848        S  0.16741493  0.49366485  0.60485253    -0.32100
H849        H  0.13692277  0.48743617  0.58098499     0.29300
H850        H  0.12925351  0.65133361  0.71050512     0.29300
H851        H  0.07027556  0.58701160  0.64266913     0.19900
H852        H  0.20281547  0.55362299  0.64684407     0.19900
C853        C  0.42794394  0.87685028  0.64456676    -0.06000
C854        C  0.39237260  0.88402379  0.63045663    -0.17100
C855        C  0.36070835  0.87120825  0.64937226     0.11200
C856        C  0.36456058  0.84905454  0.68236467    -0.05900
C857        C  0.40022318  0.83722525  0.69263599    -0.17100
C858        C  0.43145348  0.84962397  0.67343529     0.11300
S859        S  0.31662340  0.88592177  0.63094678    -0.32100
S860        S  0.47510498  0.82865324  0.68608789    -0.32100
H861        H  0.48125510  0.81485415  0.64938281     0.29300
H862        H  0.30252266  0.89711771  0.66620239     0.29300
H863        H  0.38901454  0.90149666  0.60586031     0.19900
H864        H  0.40401868  0.81745935  0.71543398     0.19900
C865        C  0.21259682  0.10449153  0.60770992    -0.06000
C866        C  0.22210793  0.09402643  0.57095967    -0.17100
C867        C  0.19652379  0.07529812  0.54722218     0.11200
C868        C  0.16023430  0.06767552  0.56055999    -0.05900
C869        C  0.15308933  0.07364537  0.59896091    -0.17100
C870        C  0.17868709  0.09184096  0.62248431     0.11300
S871        S  0.21072022  0.06340963  0.50000704    -0.32100
S872        S  0.16562147  0.10012946  0.67078111    -0.32100
H873        H  0.20164001  0.09786725  0.68544965     0.29300
H874        H  0.24816408  0.07325468  0.50392215     0.29300
H875        H  0.24880207  0.10248880  0.56029305     0.19900
H876        H  0.12599644  0.06705998  0.61000620     0.19900
C877        C  0.10801438  0.30141587  0.61099115    -0.06000
C878        C  0.13749492  0.27708471  0.60177160    -0.17100
C879        C  0.16208732  0.26458516  0.62906300     0.11200
C880        C  0.15565667  0.27385421  0.66723908    -0.05900
C881        C  0.13000976  0.30293478  0.67559898    -0.17100
C882        C  0.10765296  0.31840449  0.64734129     0.11300
S883        S  0.20255540  0.23998691  0.61265897    -0.32100
S884        S  0.08144321  0.36066185  0.65900275    -0.32100
H885        H  0.09188006  0.37936857  0.62595675     0.29300
H886        H  0.22618550  0.26109028  0.63642526     0.29300
H887        H  0.14085109  0.26684480  0.57312906     0.19900
H888        H  0.12746157  0.31380023  0.70410633     0.19900
C889        C  0.38771645  0.04342733  0.67050739    -0.06000
C890        C  0.42486190  0.05452567  0.66696428    -0.17100
C891        C  0.45029048  0.03223471  0.64667790     0.11200
C892        C  0.43926545  0.99673498  0.63089940    -0.05900
C893        C  0.40136088  0.98813839  0.63060182    -0.17100
C894        C  0.37570391  0.01047111  0.65064553     0.11300
S895        S  0.49690894  0.04971894  0.64306691    -0.32100
S896        S  0.32885868  0.99336803  0.65227380    -0.32100
H897        H  0.32400116  0.00186904  0.69066862     0.29300
H898        H  0.50694714  0.02608810  0.61246438     0.29300
H899        H  0.43422776  0.08100547  0.67992907     0.19900
H900        H  0.39185263  0.96220583  0.61739989     0.19900
C901        C  0.40179521  0.30348814  0.88502990    -0.06000
C902        C  0.43765189  0.31000734  0.87163901    -0.17100
C903        C  0.46486577  0.32528266  0.89512591     0.11200
C904        C  0.45667036  0.33215800  0.93316992    -0.05900
C905        C  0.41939218  0.33334559  0.94415341    -0.17100
C906        C  0.39180067  0.31804453  0.92071141     0.11300
S907        S  0.51117577  0.32943222  0.87732675    -0.32100
S908        S  0.34587864  0.31381124  0.93957741    -0.32100
H909        H  0.33836135  0.27779665  0.92334349     0.29300
H910        H  0.52376718  0.35319330  0.90685254     0.29300
H911        H  0.44507232  0.30103324  0.84339025     0.19900
H912        H  0.41238609  0.34067818  0.97278314     0.19900
C913        C  0.70679866  0.57318540  0.03799787    -0.06000
C914        C  0.74087636  0.58526893  0.02287910    -0.17100
C915        C  0.76195960  0.61402582  0.04005166     0.11200
C916        C  0.74911527  0.63174285  0.07317410    -0.05900
C917        C  0.71370311  0.62250100  0.08644839    -0.17100
C918        C  0.69238677  0.59356906  0.06916205     0.11300
S919        S  0.80523297  0.62669625  0.01860991    -0.32100
S920        S  0.64782118  0.58185674  0.08836278    -0.32100
H921        H  0.64401032  0.61526946  0.11047825     0.29300
H922        H  0.80641213  0.66418656  0.03341794     0.29300
H923        H  0.75153226  0.57217922  0.99740123     0.19900
H924        H  0.70381748  0.63607279  0.11203509     0.19900
C925        C  0.95150518  0.60519636  0.33943495    -0.06000
C926        C  0.94193275  0.60509872  0.37777133    -0.17100
C927        C  0.96440859  0.58753872  0.40464662     0.11200
C928        C  0.99785800  0.57013266  0.39355246    -0.05900
C929        C  0.00507635  0.56626483  0.35483320    -0.17100
C930        C  0.98293871  0.58432915  0.32780506     0.11300
S931        S  0.95068494  0.59071273  0.45323609    -0.32100
S932        S  0.99864898  0.58318685  0.27980514    -0.32100
H933        H  0.98734648  0.62068052  0.27141090     0.29300
H934        H  0.97329630  0.56050098  0.46554530     0.29300
H935        H  0.91702763  0.61961140  0.38706424     0.19900
H936        H  0.03017414  0.55266384  0.34566691     0.19900
C937        C  0.67205769  0.89217030  0.36291757    -0.06000
C938        C  0.69372021  0.91051770  0.33550349    -0.17100
C939        C  0.72165569  0.89100518  0.31585949     0.11200
C940        C  0.72871552  0.85247052  0.32401228    -0.05900
C941        C  0.70914744  0.83488726  0.35320208    -0.17100
C942        C  0.68090696  0.85426152  0.37260282     0.11300
S943        S  0.74727969  0.91488537  0.27957483    -0.32100
S944        S  0.65480017  0.82800040  0.40662437    -0.32100
H945        H  0.64959315  0.85939504  0.43096882     0.29300
H946        H  0.73179287  0.95145685  0.28534413     0.29300
H947        H  0.68700211  0.93952630  0.32762680     0.19900
H948        H  0.71436433  0.80504188  0.35937631     0.19900
C949        C  0.61031503  0.07670720  0.12261673    -0.06000
C950        C  0.64303958  0.09393475  0.11020464    -0.17100
C951        C  0.66551319  0.11533859  0.13438247     0.11200
C952        C  0.65599883  0.11969057  0.17276424    -0.05900
C953        C  0.62649742  0.09798799  0.18652005    -0.17100
C954        C  0.60390288  0.07599400  0.16209688     0.11300
S955        S  0.70629781  0.13605139  0.11412220    -0.32100
S956        S  0.56843589  0.04653422  0.18239934    -0.32100
H957        H  0.57246872  0.05927617  0.21978452     0.29300
H958        H  0.72893215  0.12634938  0.14461789     0.29300
H959        H  0.64987666  0.09290782  0.08057846     0.19900
H960        H  0.62081574  0.09885542  0.21634969     0.19900
C961        C  0.74924725  0.27168297  0.10224302    -0.06000
C962        C  0.71342362  0.28471517  0.11079564    -0.17100
C963        C  0.69805285  0.31648521  0.09271515     0.11200
C964        C  0.71891236  0.33597169  0.06544391    -0.05900
C965        C  0.75359562  0.32058617  0.05496623    -0.17100
C966        C  0.76869015  0.28873265  0.07277455     0.11300
S967        S  0.65159510  0.32996311  0.10514031    -0.32100
S968        S  0.81196656  0.26887539  0.05652384    -0.32100
H969        H  0.81947156  0.29661155  0.02927559     0.29300
H970        H  0.65738100  0.36939926  0.10213200     0.29300
H971        H  0.69802346  0.27139104  0.13318142     0.19900
H972        H  0.76869678  0.33290459  0.03191887     0.19900
C973        C  0.70788491  0.04445266  0.34542063    -0.06000
C974        C  0.67125894  0.05731410  0.34908958    -0.17100
C975        C  0.64524013  0.03681680  0.36963542     0.11200
C976        C  0.65523924  0.00131692  0.38532817    -0.05900
C977        C  0.69304132  0.99154399  0.38651374    -0.17100
C978        C  0.71934973  0.01237489  0.36628218     0.11300
S979        S  0.59899880  0.05594030  0.37275266    -0.32100
S980        S  0.76601586  0.99433164  0.36534173    -0.32100
H981        H  0.77286032  0.00365875  0.32769086     0.29300
H982        H  0.58789943  0.03298012  0.40289309     0.29300
H983        H  0.66266835  0.08343767  0.33540081     0.19900
H984        H  0.70167367  0.96510556  0.39949920     0.19900
C985        C  0.23582601  0.52997853  0.17200204    -0.06000
C986        C  0.21674305  0.54083333  0.13933684    -0.17100
C987        C  0.18673441  0.51935442  0.12547735     0.11200
C988        C  0.17569533  0.48610286  0.14444343    -0.05900
C989        C  0.19596197  0.47475971  0.17648573    -0.17100
C990        C  0.22552029  0.49638047  0.19047874     0.11300
S991        S  0.16205710  0.53521998  0.08441381    -0.32100
S992        S  0.25065019  0.48029845  0.23129858    -0.32100
H993        H  0.23426122  0.44393137  0.23345851     0.29300
H994        H  0.18553704  0.56590343  0.07585745     0.29300
H995        H  0.22450744  0.56706621  0.12553863     0.19900
H996        H  0.18912595  0.44837914  0.19041793     0.19900
C997        C  0.37292941  0.61938224  0.08002707    -0.06000
C998        C  0.40519882  0.60202024  0.09401022    -0.17100
C999        C  0.42294155  0.57191452  0.07429807     0.11200
C1000       C  0.40799314  0.55855804  0.04004342    -0.05900
C1001       C  0.37683930  0.57788448  0.02518770    -0.17100
C1002       C  0.35928229  0.60787000  0.04479230     0.11300
S1003       S  0.46379900  0.54988617  0.09349408    -0.32100
S1004       S  0.31965320  0.63153114  0.02467281    -0.32100
H1005       H  0.32151696  0.61359391  0.98913478     0.29300
H1006       H  0.46673779  0.57384408  0.12538239     0.29300
H1007       H  0.41572239  0.61125459  0.12111213     0.19900
H1008       H  0.36607034  0.56941431  0.99798594     0.19900
C1009       C  0.17289261  0.58945736  0.34039867    -0.06000
C1010       C  0.18165106  0.58670216  0.37882803    -0.17100
C1011       C  0.15673241  0.57134033  0.40448257     0.11200
C1012       C  0.12170921  0.55928825  0.39208989    -0.05900
C1013       C  0.11523470  0.55651661  0.35320412    -0.17100
C1014       C  0.14005624  0.57215868  0.32716595     0.11300
S1015       S  0.16918209  0.57142997  0.45349587    -0.32100
S1016       S  0.12712807  0.57409407  0.27819134    -0.32100
H1017       H  0.09520874  0.55141242  0.28080358     0.29300
H1018       H  0.14370196  0.54298020  0.46350792     0.29300
H1019       H  0.20764490  0.59788223  0.38927554     0.19900
H1020       H  0.08901976  0.54608882  0.34341117     0.19900
C1021       C  0.43480420  0.90257825  0.35409226    -0.06000
C1022       C  0.42259925  0.87016805  0.37324050    -0.17100
C1023       C  0.39609946  0.84558525  0.35755208     0.11200
C1024       C  0.38124190  0.85323990  0.32155877    -0.05900
C1025       C  0.39248964  0.88606771  0.30280684    -0.17100
C1026       C  0.41800986  0.91153926  0.31896687     0.11300
S1027       S  0.38375306  0.80403625  0.38427900    -0.32100
S1028       S  0.42532181  0.95666513  0.29560786    -0.32100
H1029       H  0.40521166  0.94847304  0.26266775     0.29300
H1030       H  0.38496948  0.77870639  0.35338294     0.29300
H1031       H  0.43414291  0.86369988  0.40055697     0.19900
H1032       H  0.38038095  0.89214398  0.27569133     0.19900
C1033       C  0.14407905  0.09851331  0.44858709    -0.06000
C1034       C  0.15341274  0.13789135  0.44974125    -0.17100
C1035       C  0.17934910  0.15377057  0.42542638     0.11200
C1036       C  0.19750672  0.13022302  0.39885757    -0.05900
C1037       C  0.18873959  0.09098791  0.39756708    -0.17100
C1038       C  0.16186989  0.07521475  0.42127123     0.11300
S1039       S  0.18897297  0.20418129  0.43095418    -0.32100
S1040       S  0.15087662  0.02551082  0.41422033    -0.32100
H1041       H  0.11264254  0.03136387  0.41790382     0.29300
H1042       H  0.22681699  0.20096778  0.42266181     0.29300
H1043       H  0.14169905  0.15688439  0.47072998     0.19900
H1044       H  0.20169386  0.07267466  0.37662298     0.19900
C1045       C  0.47040621  0.12599116  0.20344335    -0.06000
C1046       C  0.46127582  0.08963498  0.18873830    -0.17100
C1047       C  0.47893743  0.07461753  0.15662413     0.11200
C1048       C  0.50645960  0.09614784  0.13855189    -0.05900
C1049       C  0.51701004  0.13149039  0.15493514    -0.17100
C1050       C  0.49927792  0.14660905  0.18660363     0.11300
S1051       S  0.46334318  0.02935290  0.13823911    -0.32100
S1052       S  0.51426013  0.19292531  0.20350513    -0.32100
H1053       H  0.50464375  0.18690314  0.24121891     0.29300
H1054       H  0.49847262  0.01244154  0.14072747     0.29300
H1055       H  0.43870822  0.07377310  0.20097615     0.19900
H1056       H  0.53920700  0.14795510  0.14280664     0.19900
C1057       C  0.23805831  0.33495789  0.14245548    -0.06000
C1058       C  0.24649136  0.37100945  0.12817486    -0.17100
C1059       C  0.21931152  0.39309826  0.11008659     0.11200
C1060       C  0.18262130  0.37864874  0.10679052    -0.05900
C1061       C  0.17680021  0.33989810  0.11498893    -0.17100
C1062       C  0.20371278  0.31824653  0.13320597     0.11300
S1063       S  0.23261296  0.43925690  0.09237151    -0.32100
S1064       S  0.19172492  0.27002591  0.14568465    -0.32100
H1065       H  0.22771106  0.25550301  0.14137740     0.29300
H1066       H  0.26678882  0.44201303  0.11101481     0.29300
H1067       H  0.27373120  0.38270357  0.13318884     0.19900
H1068       H  0.14955184  0.32769080  0.11108110     0.19900
C1069       C  0.42166864  0.26200816  0.10461636    -0.06000
C1070       C  0.45980333  0.25398995  0.10646634    -0.17100
C1071       C  0.48488914  0.27071523  0.08164579     0.11200
C1072       C  0.47193722  0.29586058  0.05375874    -0.05900
C1073       C  0.43426361  0.30530122  0.05323408    -0.17100
C1074       C  0.40908182  0.28852467  0.07767467     0.11300
S1075       S  0.53292100  0.25750876  0.08562038    -0.32100
S1076       S  0.36101865  0.29983611  0.07027820    -0.32100
H1077       H  0.34912437  0.26167900  0.07334243     0.29300
H1078       H  0.54681531  0.28987482  0.06725880     0.29300
H1079       H  0.47033330  0.23460949  0.12751003     0.19900
H1080       H  0.42348205  0.32296109  0.03118847     0.19900
C1081       C  0.37729821  0.05187624  0.35611021    -0.06000
C1082       C  0.36692960  0.01610709  0.36967617    -0.17100
C1083       C  0.39183002  0.99381549  0.39049223     0.11200
C1084       C  0.42837612  0.00752484  0.39699365    -0.05900
C1085       C  0.43577166  0.04604378  0.38902840    -0.17100
C1086       C  0.41097854  0.06806364  0.36837311     0.11300
S1087       S  0.37558736  0.94860841  0.40804362    -0.32100
S1088       S  0.42453908  0.11627526  0.35747907    -0.32100
H1089       H  0.38860557  0.13138771  0.35971786     0.29300
H1090       H  0.34734148  0.94336504  0.38129841     0.29300
H1091       H  0.33987744  0.00498698  0.36263246     0.19900
H1092       H  0.46264698  0.05790925  0.39571909     0.19900
C1093       C  0.01501005  0.29877805  0.39317962    -0.06000
C1094       C  0.99391337  0.27001170  0.41009749    -0.17100
C1095       C  0.96947912  0.24706133  0.38946345     0.11200
C1096       C  0.96556297  0.25244272  0.35017208    -0.05900
C1097       C  0.98335215  0.28396981  0.33414361    -0.17100
C1098       C  0.00723181  0.30763235  0.35513994     0.11300
S1099       S  0.94441644  0.21176817  0.41569844    -0.32100
S1100       S  0.02808071  0.34764011  0.33184053    -0.32100
H1101       H  0.01177875  0.34223977  0.29630715     0.29300
H1102       H  0.90977118  0.22409979  0.40246331     0.29300
H1103       H  0.99787326  0.26404719  0.43964840     0.19900
H1104       H  0.97889629  0.28986096  0.30471868     0.19900
C1105       C  0.11727063  0.31515589  0.35669087    -0.06000
C1106       C  0.09921216  0.28564621  0.33625570    -0.17100
C1107       C  0.11601133  0.26658323  0.30612896     0.11200
C1108       C  0.15172581  0.27720882  0.29534162    -0.05900
C1109       C  0.16864883  0.30880832  0.31316424    -0.17100
C1110       C  0.15196195  0.32760144  0.34388097     0.11300
S1111       S  0.09165964  0.22699301  0.28464421    -0.32100
S1112       S  0.17794657  0.36424137  0.36811080    -0.32100
H1113       H  0.14756362  0.38180109  0.38586613     0.29300
H1114       H  0.10987527  0.22829022  0.24984769     0.29300
H1115       H  0.07330858  0.27445320  0.34615608     0.19900
H1116       H  0.19633119  0.31698181  0.30502425     0.19900
C1117       C  0.48492479  0.86162806  0.86373755    -0.06000
C1118       C  0.49896591  0.82407464  0.85971882    -0.17100
C1119       C  0.47720580  0.79433386  0.84516933     0.11200
C1120       C  0.44094027  0.80239244  0.83337862    -0.05900
C1121       C  0.42592303  0.83887467  0.84067591    -0.17100
C1122       C  0.44725938  0.86825660  0.85629815     0.11300
S1123       S  0.49847912  0.74825894  0.83798932    -0.32100
S1124       S  0.42586813  0.91448671  0.86313944    -0.32100
H1125       H  0.45171232  0.92819769  0.88956291     0.29300
H1126       H  0.47041591  0.72841792  0.85674991     0.29300
H1127       H  0.52784773  0.81833464  0.86522791     0.19900
H1128       H  0.39756432  0.84492869  0.83289231     0.19900
C1129       C  0.59451978  0.85935301  0.84115641    -0.06000
C1130       C  0.58747866  0.83764325  0.80811632    -0.17100
C1131       C  0.61177893  0.80901592  0.79563525     0.11200
C1132       C  0.64338368  0.80093739  0.81694919    -0.05900
C1133       C  0.64889460  0.82000939  0.85149901    -0.17100
C1134       C  0.62486776  0.84921926  0.86375638     0.11300
S1135       S  0.60237327  0.78285633  0.75262689    -0.32100
S1136       S  0.63492121  0.87506951  0.90666572    -0.32100
H1137       H  0.66074050  0.84866850  0.92069882     0.29300
H1138       H  0.56745499  0.79902620  0.74559648     0.29300
H1139       H  0.56306698  0.84349374  0.79157785     0.19900
H1140       H  0.67346326  0.81372829  0.86771142     0.19900
C1141       C  0.17292559  0.39901513  0.87370200    -0.06000
C1142       C  0.20837176  0.41457842  0.86831546    -0.17100
C1143       C  0.23402404  0.39694299  0.84428370     0.11200
C1144       C  0.22498551  0.36189197  0.82642069    -0.05900
C1145       C  0.19142085  0.34414933  0.83546068    -0.17100
C1146       C  0.16590180  0.36177232  0.85959792     0.11300
S1147       S  0.27629080  0.42231660  0.83519348    -0.32100
S1148       S  0.12445166  0.33581981  0.87085363    -0.32100
H1149       H  0.11572574  0.35764393  0.90311064     0.29300
H1150       H  0.27889952  0.41083441  0.79730092     0.29300
H1151       H  0.21514849  0.44236670  0.88008612     0.19900
H1152       H  0.18519268  0.31601953  0.82397762     0.19900
C1153       C  0.17730368  0.50328603  0.84895329    -0.06000
C1154       C  0.18483510  0.49618532  0.81046157    -0.17100
C1155       C  0.21563376  0.51158641  0.79232971     0.11200
C1156       C  0.24073356  0.53437796  0.81285485    -0.05900
C1157       C  0.23446779  0.54032972  0.85155794    -0.17100
C1158       C  0.20305701  0.52557548  0.86954755     0.11300
S1159       S  0.22309951  0.50068389  0.74310183    -0.32100
S1160       S  0.19706637  0.53700886  0.91858810    -0.32100
H1161       H  0.15870913  0.54233676  0.91591217     0.29300
H1162       H  0.19283089  0.47605610  0.73785362     0.29300
H1163       H  0.16705618  0.47763473  0.79417176     0.19900
H1164       H  0.25332241  0.55812270  0.86767039     0.19900
C1165       C  0.59563259  0.10207308  0.90174045    -0.06000
C1166       C  0.58581669  0.10524964  0.86356716    -0.17100
C1167       C  0.61100277  0.11742688  0.83649578     0.11200
C1168       C  0.64697755  0.12770580  0.84772723    -0.05900
C1169       C  0.65740535  0.12272915  0.88550946    -0.17100
C1170       C  0.63240060  0.10953764  0.91233066     0.11300
S1171       S  0.59452938  0.12203538  0.78894500    -0.32100
S1172       S  0.64833908  0.10464735  0.96007147    -0.32100
H1173       H  0.62138968  0.07802177  0.97087849     0.29300
H1174       H  0.61342167  0.15629932  0.78182762     0.29300
H1175       H  0.55767739  0.10069131  0.85491923     0.19900
H1176       H  0.68535256  0.12936851  0.89431042     0.19900
C1177       C  0.45123605  0.14235260  0.82642376    -0.06000
C1178       C  0.44064133  0.15876085  0.86100191    -0.17100
C1179       C  0.45325212  0.14437506  0.89519778     0.11200
C1180       C  0.47894806  0.11369839  0.89533643    -0.05900
C1181       C  0.48511343  0.09389548  0.86124298    -0.17100
C1182       C  0.47275206  0.10847788  0.82689093     0.11300
S1183       S  0.43434929  0.16595629  0.93730138    -0.32100
S1184       S  0.48805277  0.08407805  0.78483269    -0.32100
H1185       H  0.49714245  0.11793736  0.76595135     0.29300
H1186       H  0.44236334  0.13493677  0.96059488     0.29300
H1187       H  0.42175449  0.18275926  0.86161688     0.19900
H1188       H  0.50267913  0.06877616  0.86071185     0.19900
C1189       C  0.93852961  0.52570776  0.88061651    -0.06000
C1190       C  0.94444012  0.56020162  0.86204207    -0.17100
C1191       C  0.91481859  0.58143062  0.84807085     0.11200
C1192       C  0.87855160  0.56663839  0.85079269    -0.05900
C1193       C  0.87235219  0.53685112  0.87610781    -0.17100
C1194       C  0.90224482  0.51771453  0.89274582     0.11300
S1195       S  0.92410619  0.62794400  0.82919529    -0.32100
S1196       S  0.89285015  0.48577175  0.93065784    -0.32100
H1197       H  0.92546877  0.49530694  0.95004944     0.29300
H1198       H  0.96240627  0.62836551  0.83580328     0.29300
H1199       H  0.97241746  0.56847688  0.85527501     0.19900
H1200       H  0.84440296  0.52810888  0.88249079     0.19900
C1201       C  0.90230059  0.34365546  0.83641845    -0.06000
C1202       C  0.94081263  0.33776053  0.83486570    -0.17100
C1203       C  0.96573981  0.36512998  0.84868611     0.11200
C1204       C  0.95232076  0.39981412  0.86397010    -0.05900
C1205       C  0.91390009  0.40513342  0.86665379    -0.17100
C1206       C  0.88887196  0.37762975  0.85344077     0.11300
S1207       S  0.01444961  0.35522696  0.84419133    -0.32100
S1208       S  0.84049276  0.38942928  0.85632291    -0.32100
H1209       H  0.83173062  0.37502215  0.82035633     0.29300
H1210       H  0.02591664  0.38014481  0.87324651     0.29300
H1211       H  0.95173284  0.31150888  0.82270908     0.19900
H1212       H  0.90313344  0.43231792  0.87611136     0.19900
C1213       C  0.94327021  0.36455037  0.11182085    -0.06000
C1214       C  0.92440819  0.33032121  0.10393741    -0.17100
C1215       C  0.90929346  0.30835915  0.13261318     0.11200
C1216       C  0.91174857  0.32115646  0.17038613    -0.05900
C1217       C  0.93612486  0.35129386  0.17876797    -0.17100
C1218       C  0.95320620  0.37191162  0.14977895     0.11300
S1219       S  0.88740486  0.26409541  0.11908615    -0.32100
S1220       S  0.98899086  0.40495815  0.16271258    -0.32100
H1221       H  0.01062469  0.39518157  0.13128773     0.29300
H1222       H  0.89834959  0.24431345  0.15145668     0.29300
H1223       H  0.91852323  0.32244858  0.07499901     0.19900
H1224       H  0.94151013  0.35913481  0.20778671     0.19900
C1225       C  0.92935322  0.48869115  0.10369974    -0.06000
C1226       C  0.92383632  0.47888640  0.14145400    -0.17100
C1227       C  0.90551880  0.50332160  0.16648717     0.11200
C1228       C  0.89245229  0.53889451  0.15375651    -0.05900
C1229       C  0.90002906  0.54983723  0.11659608    -0.17100
C1230       C  0.91845344  0.52522408  0.09159723     0.11300
S1231       S  0.89607438  0.48539547  0.21275452    -0.32100
S1232       S  0.92471035  0.54053131  0.04382725    -0.32100
H1233       H  0.95354608  0.51484916  0.03520426     0.29300
H1234       H  0.85989096  0.50003654  0.21448998     0.29300
H1235       H  0.92953230  0.45014282  0.15043306     0.19900
H1236       H  0.89103996  0.57759743  0.10675298     0.19900
C1237       C  0.62366587  0.83199040  0.09595365    -0.06000
C1238       C  0.65858655  0.82030943  0.08293508    -0.17100
C1239       C  0.68322208  0.80055111  0.10600213     0.11200
C1240       C  0.67336126  0.79255533  0.14349954    -0.05900
C1241       C  0.64149459  0.80956967  0.15837835    -0.17100
C1242       C  0.61652487  0.82944272  0.13523093     0.11300
S1243       S  0.72639672  0.78527415  0.08543002    -0.32100
S1244       S  0.57531397  0.84899964  0.15671248    -0.32100
H1245       H  0.57752758  0.82871990  0.19054504     0.29300
H1246       H  0.74724148  0.78923749  0.11862113     0.29300
H1247       H  0.66519694  0.82320302  0.05341819     0.19900
H1248       H  0.63527069  0.80556971  0.18779495     0.19900
C1249       C  0.45348308  0.78689912  0.15200959    -0.06000
C1250       C  0.48854582  0.77056712  0.15353987    -0.17100
C1251       C  0.51621236  0.78118502  0.12831233     0.11200
C1252       C  0.50914612  0.81036144  0.10141121    -0.05900
C1253       C  0.47431341  0.82797396  0.10118171    -0.17100
C1254       C  0.44618395  0.81593437  0.12567901     0.11300
S1255       S  0.55945845  0.75515334  0.13029727    -0.32100
S1256       S  0.40045092  0.83626908  0.12212190    -0.32100
H1257       H  0.40771096  0.86000291  0.09136605     0.29300
H1258       H  0.55489245  0.74026312  0.16653166     0.29300
H1259       H  0.49351155  0.74763824  0.17315339     0.19900
H1260       H  0.46864573  0.84972182  0.08051370     0.19900
C1261       C  0.88490200  0.76217256  0.39308357    -0.06000
C1262       C  0.87751620  0.78345879  0.42577066    -0.17100
C1263       C  0.90610152  0.80052705  0.44653302     0.11200
C1264       C  0.94340929  0.79398701  0.43595417    -0.05900
C1265       C  0.95031314  0.77594984  0.40141893    -0.17100
C1266       C  0.92157648  0.76141409  0.37925809     0.11300
S1267       S  0.89267029  0.82997610  0.48586305    -0.32100
S1268       S  0.93239702  0.74547242  0.33232012    -0.32100
H1269       H  0.96990528  0.75580235  0.33222620     0.29300
H1270       H  0.91371936  0.86108277  0.47329321     0.29300
H1271       H  0.84926307  0.78678929  0.43525341     0.19900
H1272       H  0.97859410  0.77269857  0.39208764     0.19900
C1273       C  0.95552361  0.78520009  0.54879858    -0.06000
C1274       C  0.95072705  0.80752961  0.58137393    -0.17100
C1275       C  0.92321431  0.79902765  0.60764336     0.11200
C1276       C  0.90025744  0.76675856  0.60182036    -0.05900
C1277       C  0.90492962  0.74437253  0.56956933    -0.17100
C1278       C  0.93165908  0.75309820  0.54277974     0.11300
S1279       S  0.92006672  0.82943162  0.64877328    -0.32100
S1280       S  0.93420196  0.72167535  0.50204363    -0.32100
H1281       H  0.90194142  0.70041189  0.50837612     0.29300
H1282       H  0.91561977  0.79939627  0.67431345     0.29300
H1283       H  0.96898381  0.83150294  0.58672948     0.19900
H1284       H  0.88777272  0.71926537  0.56585135     0.19900
C1285       C  0.86837980  0.09424468  0.60569938    -0.06000
C1286       C  0.84512134  0.07840880  0.57843451    -0.17100
C1287       C  0.85712396  0.04925509  0.55397318     0.11200
C1288       C  0.89330850  0.03323215  0.55836633    -0.05900
C1289       C  0.91629870  0.04871194  0.58644545    -0.17100
C1290       C  0.90455127  0.07932006  0.60965129     0.11300
S1291       S  0.82652381  0.03739618  0.51525532    -0.32100
S1292       S  0.93565241  0.09784115  0.64509925    -0.32100
H1293       H  0.96807314  0.08208464  0.62954548     0.29300
H1294       H  0.79390824  0.05279228  0.53069466     0.29300
H1295       H  0.81770747  0.09038105  0.57521607     0.19900
H1296       H  0.94391153  0.03721842  0.58964898     0.19900
C1297       C  0.87877944  0.09992879  0.40904297    -0.06000
C1298       C  0.89455649  0.11008580  0.44342262    -0.17100
C1299       C  0.91390189  0.08319138  0.46477167     0.11200
C1300       C  0.91779644  0.04475296  0.45082302    -0.05900
C1301       C  0.90666069  0.03694784  0.41374629    -0.17100
C1302       C  0.88622521  0.06352379  0.39327910     0.11300
S1303       S  0.92902796  0.10102859  0.51000030    -0.32100
S1304       S  0.86826208  0.04986749  0.34776967    -0.32100
H1305       H  0.88215465  0.01223973  0.34685276     0.29300
H1306       H  0.96143911  0.07985805  0.51366646     0.29300
H1307       H  0.88986754  0.13862701  0.45474837     0.19900
H1308       H  0.91091394  0.00846469  0.40220115     0.19900
C1309       C  0.16351318  0.81791227  0.54893471    -0.06000
C1310       C  0.14826224  0.79833969  0.57958880    -0.17100
C1311       C  0.17019647  0.77749696  0.60437317     0.11200
C1312       C  0.20890608  0.77729012  0.60003415    -0.05900
C1313       C  0.22473000  0.80074963  0.57284557    -0.17100
C1314       C  0.20272114  0.82084664  0.54699471     0.11300
S1315       S  0.14684093  0.75128537  0.64065677    -0.32100
S1316       S  0.22596858  0.84849544  0.51166137    -0.32100
H1317       H  0.26248123  0.84027101  0.52241480     0.29300
H1318       H  0.17371172  0.75796700  0.66850930     0.29300
H1319       H  0.11854698  0.79715909  0.58287738     0.19900
H1320       H  0.25452861  0.80199324  0.57100580     0.19900
C1321       C  0.24357042  0.76108506  0.40898903    -0.06000
C1322       C  0.23225650  0.79732506  0.39605032    -0.17100
C1323       C  0.20279028  0.81742581  0.41314366     0.11200
C1324       C  0.18447484  0.80117081  0.44382905    -0.05900
C1325       C  0.19866178  0.76694479  0.45905994    -0.17100
C1326       C  0.22756292  0.74680682  0.44197429     0.11300
S1327       S  0.18701384  0.86229075  0.39427316    -0.32100
S1328       S  0.24196238  0.70248260  0.46301334    -0.32100
H1329       H  0.27849211  0.70390580  0.44977959     0.29300
H1330       H  0.21468590  0.86558125  0.36683885     0.29300
H1331       H  0.24459471  0.80849955  0.37077825     0.19900
H1332       H  0.18616916  0.75491685  0.48389170     0.19900
loop_ 
_geom_bond_atom_site_label_1 
_geom_bond_atom_site_label_2 
_geom_bond_distance 
_geom_bond_site_symmetry_2 
_ccdc_geom_bond_type 
N1            C5   1.372       .  A
N1            C2   1.367       .  A
N1          C574   1.478       .  S
C2            C3   1.395       .  A
C2         C1309   1.507       .  S
C3            C4   1.362       .  A
C3            H6   1.082       .  S
C4            C5   1.388       .  A
C4            H7   1.083       .  S
C5         C1324   1.498       .  S
N8           C12   1.355       .  A
N8            C9   1.367       .  A
N8          C576   1.477   1_545  S
C9           C10   1.383   1_545  A
C9         C1288   1.503       .  S
C10          C11   1.366       .  A
C10          H13   1.082       .  S
C11          C12   1.391   1_565  A
C11          H14   1.083       .  S
C12        C1300   1.499       .  S
N15          C19   1.352       .  A
N15          C16   1.362       .  A
N15         C575   1.466       .  S
C16          C17   1.385   1_655  A
C16        C1273   1.498       .  S
C17          C18   1.371   1_455  A
C17          H20   1.083       .  S
C18          C19   1.389       .  A
C18          H21   1.082   1_655  S
C19        C1264   1.491       .  S
N22          C26   1.364       .  A
N22          C23   1.371       .  A
N22         C610   1.478       .  S
C23          C24   1.381       .  A
C23        C1252   1.496       .  S
C24          C25   1.361       .  A
C24          H27   1.083       .  S
C25          C26   1.390       .  A
C25          H28   1.083       .  S
C26        C1237   1.502       .  S
N29          C33   1.368       .  A
N29          C30   1.364       .  A
N29         C642   1.464       .  S
C30          C31   1.380       .  A
C30        C1225   1.476       .  S
C31          C32   1.359       .  A
C31          H34   1.083       .  S
C32          C33   1.389       .  A
C32          H35   1.083       .  S
C33        C1213   1.501       .  S
N36          C40   1.359       .  A
N36          C37   1.365       .  A
N36         C643   1.461       .  S
C37          C38   1.382       .  A
C37        C1204   1.485       .  S
C38          C39   1.361       .  A
C38          H41   1.083       .  S
C39          C40   1.385       .  A
C39          H42   1.082       .  S
C40        C1189   1.489       .  S
N43          C47   1.359       .  A
N43          C44   1.365       .  A
N43         C608   1.459       .  S
C44          C45   1.390       .  A
C44        C1180   1.500       .  S
C45          C46   1.364       .  A
C45          H48   1.079       .  S
C46          C47   1.379       .  A
C46          H49   1.083       .  S
C47        C1165   1.487       .  S
N50          C54   1.363       .  A
N50          C51   1.368       .  A
N50         C644   1.472       .  S
C51          C52   1.390       .  A
C51        C1153   1.512       .  S
C52          C53   1.367       .  A
C52          H55   1.082       .  S
C53          C54   1.391       .  A
C53          H56   1.082       .  S
C54        C1141   1.497       .  S
N57          C61   1.363       .  A
N57          C58   1.359       .  A
N57         C609   1.466       .  S
C58          C59   1.385       .  A
C58        C1117   1.484       .  S
C59          C60   1.364       .  A
C59          H62   1.083       .  S
C60          C61   1.388       .  A
C60          H63   1.083       .  S
C61        C1129   1.494       .  S
N64          C68   1.369       .  A
N64          C65   1.372       .  A
N64         C711   1.478       .  S
C65          C66   1.388       .  A
C65        C1105   1.497       .  S
C66          C67   1.363       .  A
C66          H69   1.083       .  S
C67          C68   1.390       .  A
C67          H70   1.082       .  S
C68        C1093   1.504       .  S
O71         Mg73   2.155       .  S
O71         Mg79   2.159       .  S
O71         C106   1.238       .  S
C72         H111   1.081       .  S
C72          O85   1.234       .  S
C72         O109   1.272       .  A
Mg73        O102   2.179       .  S
Mg73        O117   2.321       .  S
Mg73        O113   2.282       .  S
Mg73         O84   2.320       .  S
O74        Mg116   2.244       .  S
O74         Mg99   2.228       .  S
O74          C95   1.261       .  A
O75         C106   1.276       .  A
O75         Mg99   2.324       .  S
C76        C1045   1.482       .  S
C76          O78   1.267       .  A
C76          O90   1.260       .  A
O77         C105   1.269       .  A
O77         Mg79   2.305       .  S
O78        Mg110   2.318       .  S
Mg79         O85   2.170       .  S
Mg79         O93   2.267       .  S
Mg79         O81   2.274       .  S
C80        C1069   1.488       .  S
C80         O118   1.269       .  A
C80          O86   1.273       .  A
O81          C88   1.268       .  A
H82          C95   1.081       .  S
C83         H108   1.081       .  S
C83          O97   1.239       .  S
C83          O98   1.278       .  A
O84         C107   1.271       .  A
O85         Mg99   2.146       .  S
O86        Mg116   2.296       .  S
C87        C1057   1.479       .  S
C87         O100   1.269       .  A
C87          O92   1.268       .  A
C88        C1108   1.472       .  S
C88         O115   1.263       .  A
Mg89         O96   2.167       .  S
Mg89         O97   2.155       .  S
Mg89         O90   2.249       .  S
Mg89         O91   2.318       .  S
Mg89        O118   2.248       .  S
O91          C95   1.268       .  A
O92         Mg99   2.271       .  S
O93         C112   1.272       .  A
O94         C114   1.270       .  A
O94        Mg110   2.274       .  S
O96        Mg110   2.132       .  S
O96         C107   1.233       .  S
O97        Mg116   2.147       .  S
O98        Mg110   2.339       .  S
Mg99        O115   2.260       .  S
O100       Mg116   2.298       .  S
H101        C106   1.081       .  S
O102       Mg110   2.175       .  S
O102        C105   1.234       .  S
H103        C105   1.081       .  S
H104        C107   1.081       .  S
O109       Mg116   2.324       .  S
C112       C1036   1.489       .  S
C112        O117   1.276       .  A
O113        C114   1.270       .  A
C114       C1081   1.475       .  S
N119        C123   1.359       .  A
N119        C120   1.364       .  A
N119        C746   1.471       .  S
C120        C121   1.380       .  A
C120       C1021   1.494       .  S
C121        C122   1.366       .  A
C121        H124   1.082       .  S
C122        C123   1.396       .  A
C122        H125   1.083   1_565  S
C123       C1084   1.503   1_565  S
O126       Mg128   2.168       .  S
O126       Mg134   2.144       .  S
O126        C161   1.234       .  S
C127        H166   1.081       .  S
C127        O140   1.234       .  S
C127        O164   1.270       .  A
Mg128       O157   2.170       .  S
Mg128       O172   2.291       .  S
Mg128       O168   2.292       .  S
Mg128       O139   2.307       .  S
O129       Mg171   2.153       .  S
O129       Mg154   2.154       .  S
O129        C150   1.238       .  S
O130        C161   1.270       .  A
O130       Mg154   2.308       .  S
C131        C997   1.482       .  S
C131        O133   1.268       .  A
C131        O145   1.269       .  A
O132        C160   1.274       .  A
O132       Mg134   2.320       .  S
O133       Mg165   2.294       .  S
Mg134       O140   2.170       .  S
Mg134       O148   2.257       .  S
Mg134       O136   2.280       .  S
C135        C985   1.476       .  S
C135        O173   1.267       .  A
C135        O141   1.267       .  A
O136        C143   1.268       .  A
H137        C150   1.081       .  S
C138        H163   1.081       .  S
C138        O152   1.234       .  S
C138        O153   1.272       .  A
O139        C162   1.269       .  A
O140       Mg154   2.167       .  S
O141       Mg171   2.276       .  S
C142       C1009   1.489       .  S
C142        O155   1.271       .  A
C142        O147   1.274       .  A
C143       C1321   1.484       .  S
C143        O170   1.270       .  A
Mg144       O151   2.172       .  S
Mg144       O152   2.137       .  S
Mg144       O145   2.289       .  S
Mg144       O146   2.330       .  S
Mg144       O173   2.274       .  S
O146        C150   1.276       .  A
O147       Mg154   2.293       .  S
O148        C167   1.267       .  A
O149        C169   1.272       .  A
O149       Mg165   2.288       .  S
O151       Mg165   2.165       .  S
O151        C162   1.233       .  S
O152       Mg171   2.175       .  S
O153       Mg165   2.326       .  S
Mg154       O170   2.276       .  S
O155       Mg171   2.285       .  S
H156        C161   1.081       .  S
O157       Mg165   2.161       .  S
O157        C160   1.237       .  S
H158        C160   1.081       .  S
H159        C162   1.081       .  S
O164       Mg171   2.310       .  S
C167       C1024   1.478       .  S
C167        O172   1.271       .  A
O168        C169   1.273       .  A
C169       C1249   1.477       .  S
O174       Mg176   2.176       .  S
O174       Mg182   2.164       .  S
O174        C209   1.234       .  S
C175        H214   1.081       .  S
C175        O188   1.233       .  S
C175        O212   1.269       .  A
Mg176       O205   2.160       .  S
Mg176       O220   2.260       .  S
Mg176       O216   2.243       .  S
Mg176       O187   2.311       .  S
O177       Mg219   2.155       .  S
O177       Mg202   2.160       .  S
O177        C198   1.236       .  S
O178        C209   1.269       .  A
O178       Mg202   2.306       .  S
C179       C1216   1.491       .  S
C179        O181   1.271       .  A
C179        O193   1.271       .  A
O180        C208   1.275       .  A
O180       Mg182   2.333       .  S
O181       Mg213   2.310       .  S
Mg182       O188   2.153       .  S
Mg182       O196   2.249       .  S
Mg182       O184   2.303       .  S
C183        C961   1.476       .  S
C183        O221   1.266       .  A
C183        O189   1.269       .  A
O184        C191   1.270       .  A
H185        C198   1.081       .  S
C186        H211   1.081       .  S
C186        O200   1.235       .  S
C186        O201   1.273       .  A
O187        C210   1.270       .  A
O188       Mg202   2.154       .  S
O189       Mg219   2.282       .  S
C190        C952   1.492       .  S
C190        O203   1.270       .  A
C190        O195   1.272       .  A
C191        C973   1.481       .  S
C191        O218   1.270       .  A
Mg192       O199   2.148       .  S
Mg192       O200   2.159       .  S
Mg192       O193   2.288       .  S
Mg192       O194   2.308       .  S
Mg192       O221   2.242       .  S
O194        C198   1.271       .  A
O195       Mg202   2.299       .  S
O196        C215   1.263       .  A
O197        C217   1.273       .  A
O197       Mg213   2.287       .  S
O199       Mg213   2.151       .  S
O199        C210   1.234       .  S
O200       Mg219   2.183       .  S
O201       Mg213   2.326       .  S
Mg202       O218   2.260       .  S
O203       Mg219   2.269       .  S
H204        C209   1.080       .  S
O205       Mg213   2.170       .  S
O205        C208   1.236       .  S
H206        C208   1.081       .  S
H207        C210   1.081       .  S
O212       Mg219   2.312       .  S
C215       C1297   1.470       .  S
C215        O220   1.264       .  A
O216        C217   1.265       .  A
C217       C1096   1.494       .  S
N222        C226   1.364       .  A
N222        C223   1.366       .  A
N222        C743   1.469       .  S
C223        C224   1.385       .  A
C223        C937   1.492       .  S
C224        C225   1.363       .  A
C224        H227   1.083       .  S
C225        C226   1.390       .  A
C225        H228   1.082       .  S
C226        C976   1.496   1_565  S
O229       Mg231   2.169       .  S
O229       Mg237   2.154       .  S
O229        C264   1.232       .  S
C230        H269   1.081       .  S
C230        O243   1.232       .  S
C230        O267   1.267       .  A
Mg231       O260   2.146       .  S
Mg231       O275   2.271       .  S
Mg231       O271   2.257       .  S
Mg231       O242   2.315       .  S
O232       Mg274   2.144       .  S
O232       Mg257   2.157       .  S
O232        C253   1.237       .  S
O233        C264   1.269       .  A
O233       Mg257   2.314       .  S
C234        C940   1.476       .  S
C234        O236   1.270       .  A
C234        O248   1.270       .  A
O235        C263   1.274       .  A
O235       Mg237   2.320       .  S
O236       Mg268   2.267       .  S
Mg237       O243   2.159       .  S
Mg237       O251   2.269       .  S
Mg237       O239   2.279       .  S
C238       C1261   1.485       .  S
C238        O276   1.265       .  A
C238        O244   1.263       .  A
O239        C246   1.271       .  A
H240        C253   1.081       .  S
C241        H266   1.081       .  S
C241        O255   1.232       .  S
C241        O256   1.269       .  A
O242        C265   1.272       .  A
O243       Mg257   2.171       .  S
O244       Mg274   2.223       .  S
C245        C925   1.487       .  S
C245        O258   1.265       .  A
C245        O250   1.275       .  A
C246       C1228   1.475       .  S
C246        O273   1.270       .  A
Mg247       O254   2.168       .  S
Mg247       O255   2.165       .  S
Mg247       O248   2.288       .  S
Mg247       O249   2.334       .  S
Mg247       O276   2.297       .  S
O249        C253   1.275       .  A
O250       Mg257   2.336       .  S
O251        C270   1.268       .  A
O252        C272   1.272       .  A
O252       Mg268   2.307       .  S
O254       Mg268   2.170       .  S
O254        C265   1.235       .  S
O255       Mg274   2.168       .  S
O256       Mg268   2.311       .  S
Mg257       O273   2.258       .  S
O258       Mg274   2.241       .  S
H259        C264   1.081       .  S
O260       Mg268   2.166       .  S
O260        C263   1.237       .  S
H261        C263   1.081       .  S
H262        C265   1.081       .  S
O267       Mg274   2.300       .  S
C270        C916   1.478       .  S
C270        O275   1.268       .  A
O271        C272   1.269       .  A
C272       C1240   1.482       .  S
N277        C281   1.368       .  A
N277        C278   1.364       .  A
N277        C712   1.465       .  S
C278        C279   1.382       .  A
C278       C1012   1.482       .  S
C279        C280   1.360       .  A
C279        H282   1.083       .  S
C280        C281   1.384       .  A
C280        H283   1.083       .  S
C281        C928   1.490   1_455  S
N284        C288   1.359       .  A
N284        C285   1.368   1_556  A
N284        C676   1.458   1_556  S
C285        C286   1.384   1_554  A
C285       C1072   1.484       .  S
C286        C287   1.360       .  A
C286        H289   1.083   1_556  S
C287        C288   1.383       .  A
C287        H290   1.083       .  S
C288        C904   1.476       .  S
O291       Mg293   2.184       .  S
O291       Mg299   2.171       .  S
O291        C326   1.234       .  S
C292        H331   1.081       .  S
C292        O329   1.270       .  A
C292        O305   1.261       .  A
Mg293       O322   2.141       .  S
Mg293       O337   2.252       .  S
Mg293       O333   2.270       .  S
Mg293       O304   2.309       .  S
O294       Mg336   2.151       .  S
O294       Mg319   2.160       .  S
O294        C315   1.238       .  S
O295        C326   1.272       .  A
O295       Mg319   2.321       .  S
C296        C889   1.487       .  S
C296        O298   1.269       .  A
C296        O310   1.272       .  A
O297        C325   1.277       .  A
O297       Mg299   2.333       .  S
O298       Mg330   2.273       .  S
Mg299       O313   2.261       .  S
Mg299       O301   2.297       .  S
Mg299       O305   2.214       .  S
C300       C1177   1.489       .  S
C300        O338   1.263       .  A
C300        O306   1.263       .  A
O301        C308   1.273       .  A
H302        C315   1.081       .  S
C303        H328   1.081       .  S
C303        O317   1.233       .  S
C303        O318   1.270       .  A
O304        C327   1.269       .  A
O305       Mg319   2.234       .  S
O306       Mg336   2.235       .  S
C307        C901   1.472       .  S
C307        O320   1.266       .  A
C307        O312   1.269       .  A
C308       C1144   1.480       .  S
C308        O335   1.267       .  A
Mg309       O316   2.147       .  S
Mg309       O317   2.167       .  S
Mg309       O310   2.289       .  S
Mg309       O311   2.337       .  S
Mg309       O338   2.286       .  S
O311        C315   1.277       .  A
O312       Mg319   2.301       .  S
O313        C332   1.264       .  A
O314        C334   1.269       .  A
O314       Mg330   2.307       .  S
O316       Mg330   2.156       .  S
O316        C327   1.233       .  S
O317       Mg336   2.172       .  S
O318       Mg330   2.315       .  S
Mg319       O335   2.260       .  S
O320       Mg336   2.239       .  S
H321        C326   1.081       .  S
O322       Mg330   2.180       .  S
O322        C325   1.238       .  S
H323        C325   1.081       .  S
H324        C327   1.081       .  S
O329       Mg336   2.325       .  S
C332        C880   1.482       .  S
C332        O337   1.268       .  A
O333        C334   1.267       .  A
C334        C865   1.478       .  S
N339        C343   1.369       .  A
N339        C340   1.370       .  A
N339        C745   1.468       .  S
C340        C341   1.386       .  A
C340        C853   1.500       .  S
C341        C342   1.359       .  A
C341        H344   1.081       .  S
C342        C343   1.386       .  A
C342        H345   1.083       .  S
C343        C892   1.499       .  S
O346       Mg348   2.168       .  S
O346       Mg354   2.154       .  S
O346        C381   1.238       .  S
C347        H386   1.081       .  S
C347        O360   1.231       .  S
C347        O384   1.267       .  A
Mg348       O392   2.307       .  S
Mg348       O388   2.281       .  S
Mg348       O359   2.325       .  S
Mg348       O377   2.231       .  S
O349       Mg391   2.160       .  S
O349       Mg374   2.158       .  S
O349        C370   1.235       .  S
O350        C381   1.277       .  A
O350       Mg374   2.338       .  S
C351       C1156   1.490       .  S
C351        O353   1.266       .  A
C351        O365   1.266       .  A
O352        C380   1.271       .  A
O352       Mg354   2.328       .  S
O353       Mg385   2.293       .  S
Mg354       O360   2.156       .  S
Mg354       O368   2.228       .  S
Mg354       O356   2.232       .  S
C355        C844   1.474       .  S
C355        O393   1.270       .  A
C355        O361   1.270       .  A
O356        C363   1.265       .  A
H357        C370   1.081       .  S
C358        H383   1.081       .  S
C358        O372   1.238       .  S
C358        O373   1.277       .  A
O359        C382   1.272       .  A
O360       Mg374   2.174       .  S
O361       Mg391   2.297       .  S
C362       C1312   1.479       .  S
C362        O375   1.271       .  A
C362        O367   1.270       .  A
C363        C856   1.494       .  S
C363        O390   1.262       .  A
Mg364       O371   2.184       .  S
Mg364       O372   2.142       .  S
Mg364       O365   2.250       .  S
Mg364       O366   2.314       .  S
Mg364       O393   2.269       .  S
O366        C370   1.271       .  A
O367       Mg374   2.294       .  S
O368        C387   1.265       .  A
O369        C389   1.274       .  A
O369       Mg385   2.298       .  S
O371       Mg385   2.163       .  S
O371        C382   1.234       .  S
O372       Mg391   2.174       .  S
O373       Mg385   2.336       .  S
Mg374       O390   2.293       .  S
O375       Mg391   2.269       .  S
H376        C381   1.081       .  S
O377       Mg385   2.228       .  S
O377        C380   1.262       .  A
H378        C380   1.081       .  S
H379        C382   1.081       .  S
O384       Mg391   2.306       .  S
C387       C1120   1.474       .  S
C387        O392   1.271       .  A
O388        C389   1.270       .  A
C389        C832   1.483       .  S
N394        C398   1.366       .  A
N394        C395   1.365       .  A
N394        C709   1.471       .  S
C395        C396   1.382       .  A
C395        C841   1.487       .  S
C396        C397   1.362       .  A
C396        H399   1.084       .  S
C397        C398   1.389       .  A
C397        H400   1.082       .  S
C398        C817   1.510   1_455  S
N401        C405   1.369       .  A
N401        C402   1.357       .  A
N401        C710   1.466       .  S
C402        C403   1.384       .  A
C402        C877   1.492       .  S
C403        C404   1.363       .  A
C403        H406   1.082       .  S
C404        C405   1.388       .  A
C404        H407   1.083       .  S
C405        C805   1.500   1_455  S
O408       Mg410   2.172       .  S
O408       Mg416   2.149       .  S
O408        C443   1.234       .  S
C409        H448   1.081       .  S
C409        O422   1.234       .  S
C409        O446   1.271       .  A
Mg410       O439   2.155       .  S
Mg410       O454   2.279       .  S
Mg410       O450   2.265       .  S
Mg410       O421   2.311       .  S
O411       Mg453   2.157       .  S
O411       Mg436   2.158       .  S
O411        C432   1.237       .  S
O412        C443   1.272       .  A
O412       Mg436   2.325       .  S
C413       C1168   1.480       .  S
C413        O415   1.271       .  A
C413        O427   1.269       .  A
O414        C442   1.274       .  A
O414       Mg416   2.326       .  S
O415       Mg447   2.285       .  S
Mg416       O422   2.176       .  S
Mg416       O430   2.280       .  S
Mg416       O418   2.264       .  S
C417        C781   1.484       .  S
C417        O455   1.267       .  A
C417        O423   1.271       .  A
O418        C425   1.268       .  A
H419        C432   1.081       .  S
C420        H445   1.081       .  S
C420        O434   1.233       .  S
C420        O435   1.270       .  A
O421        C444   1.270       .  A
O422       Mg436   2.166       .  S
O423       Mg453   2.283       .  S
C424       C1201   1.487       .  S
C424        O437   1.271       .  A
C424        O429   1.272       .  A
C425        C808   1.483       .  S
C425        O452   1.267       .  A
Mg426       O433   2.168       .  S
Mg426       O434   2.147       .  S
Mg426       O427   2.272       .  S
Mg426       O428   2.320       .  S
Mg426       O455   2.273       .  S
O428        C432   1.274       .  A
O429       Mg436   2.287       .  S
O430        C449   1.266       .  A
O431        C451   1.274       .  A
O431       Mg447   2.301       .  S
O433       Mg447   2.166       .  S
O433        C444   1.233       .  S
O434       Mg453   2.158       .  S
O435       Mg447   2.312       .  S
Mg436       O452   2.276       .  S
O437       Mg453   2.280       .  S
H438        C443   1.081       .  S
O439       Mg447   2.167       .  S
O439        C442   1.236       .  S
H440        C442   1.081       .  S
H441        C444   1.081       .  S
O446       Mg453   2.315       .  S
C449       C1285   1.486       .  S
C449        O454   1.269       .  A
O450        C451   1.269       .  A
C451        C793   1.487       .  S
N456        C460   1.365       .  A
N456        C457   1.364       .  A
N456        C744   1.469       .  S
C457        C458   1.389       .  A
C457        C769   1.498       .  S
C458        C459   1.365       .  A
C458        H461   1.083       .  S
C459        C460   1.392       .  A
C459        H462   1.082       .  S
C460        C796   1.501       .  S
O463       Mg465   2.154       .  S
O463       Mg471   2.144       .  S
O463        C498   1.237       .  S
C464        H503   1.081       .  S
C464        O477   1.233       .  S
C464        O501   1.271       .  A
Mg465       O494   2.187       .  S
Mg465       O509   2.317       .  S
Mg465       O505   2.232       .  S
Mg465       O476   2.289       .  S
O466       Mg508   2.248       .  S
O466       Mg491   2.235       .  S
O466        C487   1.264       .  A
O467        C498   1.275       .  A
O467       Mg491   2.329       .  S
C468        C772   1.477       .  S
C468        O470   1.268       .  A
C468        O482   1.265       .  A
O469        C497   1.266       .  A
O469       Mg471   2.298       .  S
O470       Mg502   2.299       .  S
Mg471       O477   2.174       .  S
Mg471       O485   2.255       .  S
Mg471       O473   2.220       .  S
C472       C1132   1.473       .  S
C472        O510   1.268       .  A
C472        O478   1.269       .  A
O473        C480   1.264       .  A
H474        C487   1.080       .  S
C475        H500   1.081       .  S
C475        O489   1.236       .  S
C475        O490   1.275       .  A
O476        C499   1.263       .  A
O477       Mg491   2.176       .  S
O478       Mg508   2.285       .  S
C479        C757   1.477       .  S
C479        O492   1.267       .  A
C479        O484   1.271       .  A
C480       C1192   1.485       .  S
C480        O507   1.264       .  A
Mg481       O488   2.158       .  S
Mg481       O489   2.152       .  S
Mg481       O482   2.260       .  S
Mg481       O483   2.320       .  S
Mg481       O510   2.254       .  S
O483        C487   1.271       .  A
O484       Mg491   2.274       .  S
O485        C504   1.265       .  A
O486        C506   1.276       .  A
O486       Mg502   2.308       .  S
O488       Mg502   2.151       .  S
O488        C499   1.229       .  S
O489       Mg508   2.150       .  S
O490       Mg502   2.333       .  S
Mg491       O507   2.298       .  S
O492       Mg508   2.272       .  S
H493        C498   1.081       .  S
O494       Mg502   2.155       .  S
O494        C497   1.232       .  S
H495        C497   1.081       .  S
H496        C499   1.081       .  S
O501       Mg508   2.324       .  S
C504        C820   1.500       .  S
C504        O509   1.274       .  A
O505        C506   1.271       .  A
C506       C1276   1.473       .  S
N511        C515   1.363       .  A
N511        C512   1.370   1_556  A
N511        C677   1.481   1_556  S
C512        C513   1.387   1_554  A
C512       C1000   1.506       .  S
C513        C514   1.363       .  A
C513        H516   1.083   1_556  S
C514        C515   1.390       .  A
C514        H517   1.083       .  S
C515        C829   1.506       .  S
N518        C522   1.361   1_554  A
N518        C519   1.360       .  A
N518        C675   1.473       .  S
C519        C520   1.388       .  A
C519        C964   1.495       .  S
C520        C521   1.367   1_554  A
C520        H523   1.083       .  S
C521        C522   1.391       .  A
C521        H524   1.082       .  S
C522        C784   1.511       .  S
N525        C529   1.361   1_554  A
N525        C526   1.367       .  A
N525        C678   1.477       .  S
C526        C527   1.386   1_554  A
C526        C913   1.502       .  S
C527        C528   1.366       .  A
C527        H530   1.083   1_556  S
C528        C529   1.397       .  A
C528        H531   1.082       .  S
C529        C760   1.508       .  S
N532        C536   1.366       .  A
N532        C533   1.368       .  A
N532        C607   1.481       .  S
C533        C534   1.387       .  A
C533       C1048   1.499       .  S
C534        C535   1.363       .  A
C534        H537   1.083       .  S
C535        C536   1.394       .  A
C535        H538   1.083       .  S
C536        C949   1.512       .  S
N539        C543   1.366       .  A
N539        C540   1.361       .  A
N539        C641   1.472       .  S
C540        C541   1.391       .  A
C540       C1060   1.503       .  S
C541        C542   1.363       .  A
C541        H544   1.083       .  S
C542        C543   1.386       .  A
C542        H545   1.083       .  S
C543        C988   1.497       .  S
N546        C550   1.371       .  A
N546        C547   1.364       .  A
N546        C573   1.476       .  S
C547        C548   1.386       .  A
C547        C868   1.501       .  S
C548        C549   1.361       .  A
C548        H551   1.083       .  S
C549        C550   1.389       .  A
C549        H552   1.082       .  S
C550       C1033   1.512       .  S
N553        C558   1.360       .  A
N553        C557   1.352       .  A
N553        H585   1.045       .  S
N554        C561   1.362   1_565  A
N554        C562   1.364   1_565  A
N555        C560   1.356       .  A
N555        C559   1.351       .  A
N555        H586   1.045   1_655  S
N556        C563   1.348       .  A
N556        C564   1.350       .  A
C557        C565   1.386       .  A
C557        C573   1.426   1_565  A
C558        C574   1.429       .  A
C558        C566   1.385       .  A
C559        C567   1.393       .  A
C559        C576   1.432       .  A
C560        C575   1.414       .  A
C560        C568   1.379       .  A
C561        C573   1.439       .  A
C561        C569   1.387       .  A
C562        C576   1.431   1_445  A
C562        C570   1.382       .  A
C563        C571   1.382       .  A
C563        C574   1.412       .  A
C564        C572   1.389       .  A
C564        C575   1.419   1_455  A
C565        C566   1.395       .  A
C565        H577   1.080       .  S
C566        H578   1.076       .  S
C567        C568   1.381       .  A
C567        H579   1.080       .  S
C568        H580   1.077       .  S
C569        C570   1.372       .  A
C569        H581   1.079       .  S
C570        H582   1.075   1_455  S
C571        C572   1.375       .  A
C571        H583   1.082       .  S
C572        H584   1.080       .  S
N587        C592   1.354   1_554  A
N587        C591   1.351       .  A
N587        H619   1.045       .  S
N588        C595   1.361       .  A
N588        C596   1.356       .  A
N589        C594   1.364       .  A
N589        C593   1.364   1_556  A
N589        H620   1.045       .  S
N590        C597   1.355   1_565  A
N590        C598   1.350       .  A
C591        C599   1.387       .  A
C591        C607   1.423       .  A
C592        C608   1.416       .  A
C592        C600   1.383       .  A
C593        C601   1.393   1_554  A
C593        C610   1.448       .  A
C594        C609   1.425       .  A
C594        C602   1.377       .  A
C595        C607   1.424   1_565  A
C595        C603   1.381       .  A
C596        C610   1.428       .  A
C596        C604   1.386       .  A
C597        C605   1.377       .  A
C597        C608   1.408       .  A
C598        C606   1.390       .  A
C598        C609   1.424       .  A
C599        C600   1.378   1_554  A
C599        H611   1.082       .  S
C600        H612   1.077       .  S
C601        C602   1.377       .  A
C601        H613   1.074   1_556  S
C602        H614   1.079       .  S
C603        C604   1.387       .  A
C603        H615   1.080       .  S
C604        H616   1.075       .  S
C605        C606   1.373   1_545  A
C605        H617   1.076       .  S
C606        H618   1.077       .  S
N621        C626   1.361       .  A
N621        C625   1.359       .  A
N621        H653   1.042       .  S
N622        C629   1.353   1_556  A
N622        C630   1.357       .  A
N623        C628   1.354       .  A
N623        C627   1.350       .  A
N623        H654   1.049       .  S
N624        C631   1.350   1_456  A
N624        C632   1.353   1_455  A
C625        C633   1.393       .  A
C625        C641   1.440       .  A
C626        C642   1.421   1_455  A
C626        C634   1.379       .  A
C627        C635   1.384       .  A
C627        C644   1.420       .  A
C628        C643   1.425   1_455  A
C628        C636   1.389       .  A
C629        C641   1.423       .  A
C629        C637   1.387       .  A
C630        C644   1.418       .  A
C630        C638   1.382       .  A
C631        C639   1.390   1_554  A
C631        C642   1.425       .  A
C632        C640   1.378       .  A
C632        C643   1.408       .  A
C633        C634   1.382       .  A
C633        H645   1.079       .  S
C634        H646   1.082       .  S
C635        C636   1.377       .  A
C635        H647   1.081       .  S
C636        H648   1.078       .  S
C637        C638   1.388   1_554  A
C637        H649   1.077       .  S
C638        H650   1.082       .  S
C639        C640   1.376       .  A
C639        H651   1.076   1_556  S
C640        H652   1.079       .  S
N655        C660   1.347   1_554  A
N655        C659   1.357       .  A
N655        H687   1.057       .  S
N656        C663   1.354       .  A
N656        C664   1.349       .  A
N657        C662   1.357       .  A
N657        C661   1.360       .  A
N657        H688   1.048       .  S
N658        C665   1.362       .  A
N658        C666   1.363       .  A
C659        C667   1.379   1_554  A
C659        C675   1.414       .  A
C660        C676   1.423   1_556  A
C660        C668   1.390       .  A
C661        C669   1.385   1_554  A
C661        C678   1.429       .  A
C662        C677   1.428       .  A
C662        C670   1.386   1_554  A
C663        C675   1.426       .  A
C663        C671   1.388       .  A
C664        C678   1.419       .  A
C664        C672   1.384       .  A
C665        C673   1.376       .  A
C665        C676   1.420       .  A
C666        C674   1.391       .  A
C666        C677   1.445       .  A
C667        C668   1.376       .  A
C667        H679   1.076       .  S
C668        H680   1.076       .  S
C669        C670   1.388       .  A
C669        H681   1.078       .  S
C670        H682   1.078       .  S
C671        C672   1.374       .  A
C671        H683   1.079       .  S
C672        H684   1.081       .  S
C673        C674   1.376       .  A
C673        H685   1.078       .  S
C674        H686   1.077       .  S
N689        C694   1.356       .  A
N689        C693   1.351       .  A
N689        H721   1.043       .  S
N690        C697   1.366       .  A
N690        C698   1.363       .  A
N691        C696   1.363       .  A
N691        C695   1.355       .  A
N691        H722   1.036       .  S
N692        C699   1.355       .  A
N692        C700   1.353       .  A
C693        C701   1.394       .  A
C693        C709   1.430       .  A
C694        C710   1.411       .  A
C694        C702   1.380       .  A
C695        C703   1.387       .  A
C695        C712   1.428       .  A
C696        C711   1.428       .  A
C696        C704   1.384       .  A
C697        C709   1.428       .  A
C697        C705   1.377       .  A
C698        C712   1.445       .  A
C698        C706   1.390       .  A
C699        C707   1.386       .  A
C699        C710   1.420       .  A
C700        C708   1.380       .  A
C700        C711   1.416       .  A
C701        C702   1.384       .  A
C701        H713   1.079   1_455  S
C702        H714   1.082   1_455  S
C703        C704   1.391       .  A
C703        H715   1.082       .  S
C704        H716   1.077       .  S
C705        C706   1.371       .  A
C705        H717   1.080       .  S
C706        H718   1.073       .  S
C707        C708   1.369       .  A
C707        H719   1.078       .  S
C708        H720   1.081       .  S
N723        C728   1.353       .  A
N723        C727   1.353       .  A
N723        H755   1.044       .  S
N724        C731   1.357       .  A
N724        C732   1.356       .  A
N725        C730   1.354       .  A
N725        C729   1.352       .  A
N725        H756   1.046       .  S
N726        C733   1.354       .  A
N726        C734   1.355       .  A
C727        C735   1.388       .  A
C727        C743   1.422       .  A
C728        C744   1.420       .  A
C728        C736   1.387       .  A
C729        C737   1.389       .  A
C729        C746   1.424       .  A
C730        C745   1.419       .  A
C730        C738   1.385       .  A
C731        C743   1.428       .  A
C731        C739   1.386       .  A
C732        C746   1.426       .  A
C732        C740   1.384       .  A
C733        C741   1.384       .  A
C733        C744   1.422       .  A
C734        C742   1.381       .  A
C734        C745   1.421       .  A
C735        C736   1.397       .  A
C735        H747   1.082       .  S
C736        H748   1.082       .  S
C737        C738   1.395       .  A
C737        H749   1.079       .  S
C738        H750   1.082       .  S
C739        C740   1.373       .  A
C739        H751   1.080       .  S
C740        H752   1.081       .  S
C741        C742   1.370       .  A
C741        H753   1.081       .  S
C742        H754   1.075       .  S
C757        C758   1.397       .  A
C757        C762   1.411       .  A
C758        C759   1.406       .  A
C758        H767   1.083       .  S
C759        C760   1.426       .  A
C759        S763   1.808       .  S
C760        C761   1.407       .  A
C761        C762   1.396       .  A
C761        H768   1.084       .  S
C762        S764   1.800       .  S
S763        H766   1.406       .  S
S764        H765   1.404       .  S
C769        C770   1.414       .  A
C769        C774   1.412       .  A
C770        C771   1.396       .  A
C770        H779   1.081       .  S
C771        C772   1.405       .  A
C771        S775   1.809       .  S
C772        C773   1.408       .  A
C773        C774   1.407       .  A
C773        H780   1.084       .  S
C774        S776   1.801       .  S
S775        H778   1.407       .  S
S776        H777   1.404       .  S
C781        C782   1.400       .  A
C781        C786   1.412       .  A
C782        C783   1.409       .  A
C782        H791   1.083       .  S
C783        C784   1.429       .  A
C783        S787   1.805   1_556  S
C784        C785   1.406       .  A
C785        C786   1.402       .  A
C785        H792   1.082       .  S
C786        S788   1.807       .  S
S787        H790   1.407       .  S
S788        H789   1.406       .  S
C793        C794   1.407       .  A
C793        C798   1.413       .  A
C794        C795   1.401       .  A
C794        H803   1.084       .  S
C795        C796   1.415   1_545  A
C795        S799   1.804       .  S
C796        C797   1.411       .  A
C797        C798   1.402   1_565  A
C797        H804   1.082       .  S
C798        S800   1.802   1_545  S
S799        H802   1.407       .  S
S800        H801   1.407       .  S
C805        C806   1.409   1_655  A
C805        C810   1.414       .  A
C806        C807   1.399   1_455  A
C806        H815   1.072       .  S
C807        C808   1.408       .  A
C807        S811   1.804   1_655  S
C808        C809   1.408       .  A
C809        C810   1.406       .  A
C809        H816   1.084       .  S
C810        S812   1.803       .  S
S811        H814   1.407       .  S
S812        H813   1.407       .  S
C817        C818   1.408       .  A
C817        C822   1.420       .  A
C818        C819   1.400       .  A
C818        H827   1.083       .  S
C819        C820   1.422       .  A
C819        S823   1.804       .  S
C820        C821   1.407       .  A
C821        C822   1.407       .  A
C821        H828   1.084       .  S
C822        S824   1.792   1_655  S
S823        H826   1.408       .  S
S824        H825   1.406   1_455  S
C829        C830   1.406       .  A
C829        C834   1.426       .  A
C830        C831   1.397       .  A
C830        H839   1.084       .  S
C831        C832   1.413       .  A
C831        S835   1.803       .  S
C832        C833   1.401       .  A
C833        C834   1.410       .  A
C833        H840   1.083       .  S
C834        S836   1.807       .  S
S835        H838   1.407       .  S
S836        H837   1.407       .  S
C841        C842   1.409       .  A
C841        C846   1.409       .  A
C842        C843   1.400       .  A
C842        H851   1.079       .  S
C843        C844   1.408       .  A
C843        S847   1.804       .  S
C844        C845   1.406       .  A
C845        C846   1.402       .  A
C845        H852   1.084       .  S
C846        S848   1.802       .  S
S847        H850   1.405       .  S
S848        H849   1.408       .  S
C853        C854   1.405       .  A
C853        C858   1.414       .  A
C854        C855   1.408       .  A
C854        H863   1.080       .  S
C855        C856   1.421       .  A
C855        S859   1.801       .  S
C856        C857   1.404       .  A
C857        C858   1.395       .  A
C857        H864   1.080       .  S
C858        S860   1.800       .  S
S859        H862   1.407       .  S
S860        H861   1.406       .  S
C865        C866   1.398       .  A
C865        C870   1.411       .  A
C866        C867   1.410       .  A
C866        H875   1.083       .  S
C867        C868   1.425       .  A
C867        S871   1.803       .  S
C868        C869   1.405       .  A
C869        C870   1.398       .  A
C869        H876   1.084       .  S
C870        S872   1.805       .  S
S871        H874   1.406       .  S
S872        H873   1.407       .  S
C877        C878   1.400       .  A
C877        C882   1.418       .  A
C878        C879   1.390       .  A
C878        H887   1.084       .  S
C879        C880   1.413       .  A
C879        S883   1.793       .  S
C880        C881   1.405       .  A
C881        C882   1.403       .  A
C881        H888   1.084       .  S
C882        S884   1.798       .  S
S883        H886   1.407       .  S
S884        H885   1.405       .  S
C889        C890   1.408       .  A
C889        C894   1.413       .  A
C890        C891   1.401       .  A
C890        H899   1.084       .  S
C891        C892   1.414   1_545  A
C891        S895   1.803       .  S
C892        C893   1.406       .  A
C893        C894   1.403   1_565  A
C893        H900   1.073       .  S
C894        S896   1.802   1_545  S
S895        H898   1.407       .  S
S896        H897   1.407   1_565  S
C901        C902   1.404       .  A
C901        C906   1.411       .  A
C902        C903   1.395       .  A
C902        H911   1.084       .  S
C903        C904   1.405       .  A
C903        S907   1.801       .  S
C904        C905   1.407       .  A
C905        C906   1.404       .  A
C905        H912   1.079       .  S
C906        S908   1.802       .  S
S907        H910   1.408       .  S
S908        H909   1.406       .  S
C913        C914   1.415       .  A
C913        C918   1.412       .  A
C914        C915   1.398       .  A
C914        H923   1.083   1_554  S
C915        C916   1.405       .  A
C915        S919   1.803       .  S
C916        C917   1.407       .  A
C917        C918   1.409       .  A
C917        H924   1.083       .  S
C918        S920   1.804       .  S
S919        H922   1.407       .  S
S920        H921   1.407       .  S
C925        C926   1.409       .  A
C925        C930   1.411       .  A
C926        C927   1.401       .  A
C926        H935   1.084       .  S
C927        C928   1.409       .  A
C927        S931   1.803       .  S
C928        C929   1.409   1_655  A
C929        C930   1.406   1_455  A
C929        H936   1.074       .  S
C930        S932   1.802       .  S
S931        H934   1.408       .  S
S932        H933   1.407       .  S
C937        C938   1.414       .  A
C937        C942   1.408       .  A
C938        C939   1.402       .  A
C938        H947   1.082       .  S
C939        C940   1.403       .  A
C939        S943   1.806       .  S
C940        C941   1.407       .  A
C941        C942   1.404       .  A
C941        H948   1.084       .  S
C942        S944   1.799       .  S
S943        H946   1.407       .  S
S944        H945   1.403       .  S
C949        C950   1.405       .  A
C949        C954   1.426       .  A
C950        C951   1.396       .  A
C950        H959   1.084       .  S
C951        C952   1.416       .  A
C951        S955   1.802       .  S
C952        C953   1.404       .  A
C953        C954   1.415       .  A
C953        H960   1.082       .  S
C954        S956   1.806       .  S
S955        H958   1.403       .  S
S956        H957   1.406       .  S
C961        C962   1.407       .  A
C961        C966   1.404       .  A
C962        C963   1.403       .  A
C962        H971   1.084       .  S
C963        C964   1.414       .  A
C963        S967   1.801       .  S
C964        C965   1.414       .  A
C965        C966   1.397       .  A
C965        H972   1.081       .  S
C966        S968   1.806       .  S
S967        H970   1.399       .  S
S968        H969   1.406       .  S
C973        C974   1.405       .  A
C973        C978   1.413       .  A
C974        C975   1.398       .  A
C974        H983   1.084       .  S
C975        C976   1.412       .  A
C975        S979   1.805       .  S
C976        C977   1.411   1_545  A
C977        C978   1.405   1_565  A
C977        H984   1.083       .  S
C978        S980   1.803   1_545  S
S979        H982   1.407       .  S
S980        H981   1.406   1_565  S
C985        C986   1.407       .  A
C985        C990   1.404       .  A
C986        C987   1.408       .  A
C986        H995   1.083       .  S
C987        C988   1.410       .  A
C987        S991   1.804       .  S
C988        C989   1.415       .  A
C989        C990   1.399       .  A
C989        H996   1.081       .  S
C990        S992   1.808       .  S
S991        H994   1.407       .  S
S992        H993   1.407       .  S
C997        C998   1.408       .  A
C997       C1002   1.403       .  A
C998        C999   1.412       .  A
C998       H1007   1.083       .  S
C999       C1000   1.409       .  A
C999       S1003   1.803       .  S
C1000      C1001   1.418       .  A
C1001      C1002   1.404       .  A
C1001      H1008   1.082   1_554  S
C1002      S1004   1.806       .  S
S1003      H1006   1.407       .  S
S1004      H1005   1.407   1_554  S
C1009      C1010   1.408       .  A
C1009      C1014   1.413       .  A
C1010      C1011   1.398       .  A
C1010      H1019   1.084       .  S
C1011      C1012   1.406       .  A
C1011      S1015   1.802       .  S
C1012      C1013   1.406       .  A
C1013      C1014   1.409       .  A
C1013      H1020   1.074       .  S
C1014      S1016   1.807       .  S
S1015      H1018   1.407       .  S
S1016      H1017   1.407       .  S
C1021      C1022   1.401       .  A
C1021      C1026   1.427       .  A
C1022      C1023   1.401       .  A
C1022      H1031   1.084       .  S
C1023      C1024   1.417       .  A
C1023      S1027   1.803       .  S
C1024      C1025   1.396       .  A
C1025      C1026   1.403       .  A
C1025      H1032   1.083       .  S
C1026      S1028   1.811       .  S
S1027      H1030   1.405       .  S
S1028      H1029   1.407       .  S
C1033      C1034   1.418       .  A
C1033      C1038   1.416       .  A
C1034      C1035   1.399       .  A
C1034      H1043   1.080       .  S
C1035      C1036   1.409       .  A
C1035      S1039   1.805       .  S
C1036      C1037   1.408       .  A
C1037      C1038   1.407       .  A
C1037      H1044   1.084       .  S
C1038      S1040   1.797       .  S
S1039      H1042   1.407       .  S
S1040      H1041   1.406       .  S
C1045      C1046   1.408       .  A
C1045      C1050   1.410       .  A
C1046      C1047   1.407       .  A
C1046      H1055   1.084       .  S
C1047      C1048   1.411       .  A
C1047      S1051   1.797       .  S
C1048      C1049   1.413       .  A
C1049      C1050   1.397       .  A
C1049      H1056   1.083       .  S
C1050      S1052   1.804       .  S
S1051      H1054   1.405       .  S
S1052      H1053   1.406       .  S
C1057      C1058   1.398       .  A
C1057      C1062   1.412       .  A
C1058      C1059   1.409       .  A
C1058      H1067   1.083       .  S
C1059      C1060   1.427       .  A
C1059      S1063   1.805       .  S
C1060      C1061   1.405       .  A
C1061      C1062   1.396       .  A
C1061      H1068   1.084       .  S
C1062      S1064   1.802       .  S
S1063      H1066   1.407       .  S
S1064      H1065   1.406       .  S
C1069      C1070   1.410       .  A
C1069      C1074   1.415       .  A
C1070      C1071   1.402       .  A
C1070      H1079   1.084       .  S
C1071      C1072   1.412       .  A
C1071      S1075   1.805       .  S
C1072      C1073   1.403       .  A
C1073      C1074   1.397       .  A
C1073      H1080   1.076       .  S
C1074      S1076   1.804       .  S
S1075      H1078   1.407       .  S
S1076      H1077   1.407       .  S
C1081      C1082   1.397       .  A
C1081      C1086   1.412       .  A
C1082      C1083   1.406   1_545  A
C1082      H1091   1.083       .  S
C1083      C1084   1.427   1_565  A
C1083      S1087   1.806       .  S
C1084      C1085   1.405       .  A
C1085      C1086   1.395       .  A
C1085      H1092   1.084       .  S
C1086      S1088   1.802       .  S
S1087      H1090   1.407       .  S
S1088      H1089   1.405       .  S
C1093      C1094   1.406   1_455  A
C1093      C1098   1.420       .  A
C1094      C1095   1.398       .  A
C1094      H1103   1.084       .  S
C1095      C1096   1.421       .  A
C1095      S1099   1.804       .  S
C1096      C1097   1.405       .  A
C1097      C1098   1.406   1_655  A
C1097      H1104   1.082       .  S
C1098      S1100   1.802       .  S
S1099      H1102   1.408       .  S
S1100      H1101   1.406       .  S
C1105      C1106   1.416       .  A
C1105      C1110   1.409       .  A
C1106      C1107   1.396       .  A
C1106      H1115   1.079       .  S
C1107      C1108   1.402       .  A
C1107      S1111   1.804       .  S
C1108      C1109   1.408       .  A
C1109      C1110   1.406       .  A
C1109      H1116   1.084       .  S
C1110      S1112   1.802       .  S
S1111      H1114   1.406       .  S
S1112      H1113   1.406       .  S
C1117      C1118   1.412       .  A
C1117      C1122   1.408       .  A
C1118      C1119   1.400       .  A
C1118      H1127   1.083       .  S
C1119      C1120   1.407       .  A
C1119      S1123   1.799       .  S
C1120      C1121   1.406       .  A
C1121      C1122   1.396       .  A
C1121      H1128   1.084       .  S
C1122      S1124   1.804       .  S
S1123      H1126   1.406       .  S
S1124      H1125   1.407       .  S
C1129      C1130   1.416       .  A
C1129      C1134   1.408       .  A
C1130      C1131   1.400       .  A
C1130      H1139   1.082       .  S
C1131      C1132   1.402       .  A
C1131      S1135   1.807       .  S
C1132      C1133   1.406       .  A
C1133      C1134   1.406       .  A
C1133      H1140   1.083       .  S
C1134      S1136   1.803       .  S
S1135      H1138   1.407       .  S
S1136      H1137   1.407       .  S
C1141      C1142   1.410       .  A
C1141      C1146   1.413       .  A
C1142      C1143   1.401       .  A
C1142      H1151   1.082       .  S
C1143      C1144   1.412       .  A
C1143      S1147   1.803       .  S
C1144      C1145   1.406       .  A
C1145      C1146   1.400       .  A
C1145      H1152   1.084       .  S
C1146      S1148   1.804       .  S
S1147      H1150   1.406       .  S
S1148      H1149   1.407       .  S
C1153      C1154   1.417       .  A
C1153      C1158   1.415       .  A
C1154      C1155   1.402       .  A
C1154      H1163   1.079       .  S
C1155      C1156   1.408       .  A
C1155      S1159   1.810       .  S
C1156      C1157   1.410       .  A
C1157      C1158   1.409       .  A
C1157      H1164   1.084       .  S
C1158      S1160   1.800       .  S
S1159      H1162   1.406       .  S
S1160      H1161   1.405       .  S
C1165      C1166   1.410       .  A
C1165      C1170   1.408       .  A
C1166      C1167   1.399       .  A
C1166      H1175   1.076       .  S
C1167      C1168   1.409       .  A
C1167      S1171   1.803       .  S
C1168      C1169   1.409       .  A
C1169      C1170   1.400       .  A
C1169      H1176   1.084       .  S
C1170      S1172   1.804       .  S
S1171      H1174   1.406       .  S
S1172      H1173   1.407       .  S
C1177      C1178   1.406       .  A
C1177      C1182   1.416       .  A
C1178      C1179   1.398       .  A
C1178      H1187   1.081       .  S
C1179      C1180   1.418       .  A
C1179      S1183   1.806       .  S
C1180      C1181   1.408       .  A
C1181      C1182   1.403       .  A
C1181      H1188   1.083       .  S
C1182      S1184   1.802       .  S
S1183      H1186   1.402       .  S
S1184      H1185   1.407       .  S
C1189      C1190   1.398       .  A
C1189      C1194   1.414       .  A
C1190      C1191   1.397       .  A
C1190      H1199   1.083       .  S
C1191      C1192   1.417       .  A
C1191      S1195   1.798       .  S
C1192      C1193   1.403       .  A
C1193      C1194   1.405       .  A
C1193      H1200   1.083       .  S
C1194      S1196   1.795       .  S
S1195      H1198   1.407       .  S
S1196      H1197   1.406       .  S
C1201      C1202   1.411       .  A
C1201      C1206   1.412       .  A
C1202      C1203   1.401       .  A
C1202      H1211   1.084       .  S
C1203      C1204   1.408       .  A
C1203      S1207   1.804   1_655  S
C1204      C1205   1.407       .  A
C1205      C1206   1.400       .  A
C1205      H1212   1.076       .  S
C1206      S1208   1.802       .  S
S1207      H1210   1.407       .  S
S1208      H1209   1.407       .  S
C1213      C1214   1.404       .  A
C1213      C1218   1.419       .  A
C1214      C1215   1.398       .  A
C1214      H1223   1.084       .  S
C1215      C1216   1.415       .  A
C1215      S1219   1.800       .  S
C1216      C1217   1.405       .  A
C1217      C1218   1.410       .  A
C1217      H1224   1.083       .  S
C1218      S1220   1.794       .  S
S1219      H1222   1.407       .  S
S1220      H1221   1.406   1_655  S
C1225      C1226   1.406       .  A
C1225      C1230   1.407       .  A
C1226      C1227   1.395       .  A
C1226      H1235   1.077       .  S
C1227      C1228   1.408       .  A
C1227      S1231   1.803       .  S
C1228      C1229   1.409       .  A
C1229      C1230   1.400       .  A
C1229      H1236   1.084       .  S
C1230      S1232   1.804       .  S
S1231      H1234   1.407       .  S
S1232      H1233   1.407       .  S
C1237      C1238   1.406       .  A
C1237      C1242   1.427       .  A
C1238      C1239   1.398       .  A
C1238      H1247   1.084       .  S
C1239      C1240   1.414       .  A
C1239      S1243   1.805       .  S
C1240      C1241   1.399       .  A
C1241      C1242   1.409       .  A
C1241      H1248   1.083       .  S
C1242      S1244   1.808       .  S
S1243      H1246   1.407       .  S
S1244      H1245   1.407       .  S
C1249      C1250   1.392       .  A
C1249      C1254   1.413       .  A
C1250      C1251   1.401       .  A
C1250      H1259   1.083       .  S
C1251      C1252   1.429       .  A
C1251      S1255   1.811       .  S
C1252      C1253   1.402       .  A
C1253      C1254   1.411       .  A
C1253      H1260   1.083       .  S
C1254      S1256   1.806       .  S
S1255      H1258   1.407       .  S
S1256      H1257   1.407       .  S
C1261      C1262   1.400       .  A
C1261      C1266   1.418       .  A
C1262      C1263   1.402       .  A
C1262      H1271   1.084       .  S
C1263      C1264   1.421       .  A
C1263      S1267   1.795       .  S
C1264      C1265   1.398       .  A
C1265      C1266   1.398       .  A
C1265      H1272   1.083       .  S
C1266      S1268   1.799       .  S
S1267      H1270   1.407       .  S
S1268      H1269   1.407       .  S
C1273      C1274   1.401       .  A
C1273      C1278   1.432       .  A
C1274      C1275   1.403       .  A
C1274      H1283   1.083       .  S
C1275      C1276   1.416       .  A
C1275      S1279   1.803       .  S
C1276      C1277   1.392       .  A
C1277      C1278   1.397       .  A
C1277      H1284   1.083       .  S
C1278      S1280   1.811       .  S
S1279      H1282   1.406       .  S
S1280      H1281   1.406       .  S
C1285      C1286   1.395       .  A
C1285      C1290   1.416       .  A
C1286      C1287   1.401       .  A
C1286      H1295   1.083       .  S
C1287      C1288   1.433       .  A
C1287      S1291   1.812       .  S
C1288      C1289   1.404       .  A
C1289      C1290   1.409       .  A
C1289      H1296   1.083       .  S
C1290      S1292   1.806       .  S
S1291      H1294   1.407       .  S
S1292      H1293   1.407       .  S
C1297      C1298   1.393       .  A
C1297      C1302   1.410       .  A
C1298      C1299   1.401       .  A
C1298      H1307   1.084       .  S
C1299      C1300   1.433       .  A
C1299      S1303   1.805       .  S
C1300      C1301   1.404       .  A
C1301      C1302   1.397       .  A
C1301      H1308   1.083       .  S
C1302      S1304   1.805       .  S
S1303      H1306   1.393       .  S
S1304      H1305   1.406       .  S
C1309      C1310   1.409       .  A
C1309      C1314   1.426       .  A
C1310      C1311   1.396       .  A
C1310      H1319   1.084       .  S
C1311      C1312   1.411       .  A
C1311      S1315   1.805       .  S
C1312      C1313   1.400       .  A
C1313      C1314   1.409       .  A
C1313      H1320   1.083       .  S
C1314      S1316   1.806       .  S
S1315      H1318   1.406       .  S
S1316      H1317   1.406       .  S
C1321      C1322   1.412       .  A
C1321      C1326   1.408       .  A
C1322      C1323   1.411       .  A
C1322      H1331   1.083       .  S
C1323      C1324   1.406       .  A
C1323      S1327   1.804       .  S
C1324      C1325   1.414       .  A
C1325      C1326   1.396       .  A
C1325      H1332   1.084       .  S
C1326      S1328   1.803       .  S
S1327      H1330   1.407       .  S
S1328      H1329   1.407       .  S
