geometry optimzed in LAMMPS
_audit_creation_date              2020-12-01 
_audit_creation_method            'lammps2cif' 
_symmetry_space_group_name_H-M    'P1' 
_symmetry_Int_Tables_number       1 
_symmetry_cell_setting            triclinic 
loop_ 
_symmetry_equiv_pos_as_xyz 
  x,y,z 
_cell_length_a                    32.59286118 
_cell_length_b                    32.595704482080926 
_cell_length_c                    29.757106292392717 
_cell_angle_alpha                 90.00221921917773 
_cell_angle_beta                  89.99548524655907 
_cell_angle_gamma                 120.08055857185941 
loop_ 
_atom_site_label 
_atom_site_type_symbol 
_atom_site_fract_x 
_atom_site_fract_y 
_atom_site_fract_z 
_atom_site_charge 
N1          N  0.08667512  0.14722662  0.37410147    -0.00100
C2          C  0.10233942  0.19311642  0.36262635     0.02500
C3          C  0.10769213  0.22032185  0.39996598    -0.20400
C4          C  0.09539794  0.19078684  0.43634662    -0.20600
C5          C  0.08291724  0.14621296  0.42024954     0.02400
H6          H  0.12135711  0.25820135  0.40084019     0.16200
H7          H  0.09687127  0.20114502  0.47113677     0.16200
N8          N  0.14192218  0.45953863  0.37402886    -0.00100
C9          C  0.17208122  0.44383499  0.36254699     0.02500
C10         C  0.19397440  0.43854444  0.39987565    -0.20400
C11         C  0.17681837  0.45090497  0.43625538    -0.20600
C12         C  0.14473216  0.46336212  0.42017086     0.02400
H13         H  0.21814318  0.42486146  0.40074867     0.16200
H14         H  0.18573553  0.44947062  0.47104058     0.16200
C15         C  0.19581321  0.37061615  0.27221829     0.83600
N16         N  0.16255366  0.32383743  0.27204919    -0.74700
C17         C  0.17540160  0.29012796  0.27216660     0.86000
N18         N  0.22216655  0.30369964  0.27201579    -0.74600
C19         C  0.25592781  0.35031747  0.27221479     0.86100
N20         N  0.24242217  0.38352660  0.27210653    -0.76400
N21         N  0.39880927  0.40411284  0.37408654    -0.00100
C22         C  0.35287251  0.37396322  0.36261001     0.02500
C23         C  0.32563951  0.35204718  0.39993863    -0.20400
C24         C  0.35520517  0.36918285  0.43631388    -0.20600
C25         C  0.39982481  0.40127991  0.42022619     0.02400
H26         H  0.28772843  0.32788223  0.40081695     0.16200
H27         H  0.34483543  0.36025215  0.47109945     0.16200
Zn28       Zn  0.04251102  0.00360690  0.46197769     1.49700
Zn29       Zn  0.06301307  0.06860851  0.04643567     1.49400
Zn30       Zn  0.47747510  0.45898400  0.04643738     1.49100
Zn31       Zn  0.08706621  0.48318537  0.04638995     1.49500
O32         O  0.04251379  0.00359489  0.02650890    -1.80700
O33         O  0.05518215  0.06478755  0.43668713    -0.71400
O34         O  0.01142369  0.06964574  0.08390903    -0.71200
O35         O  0.43197330  0.42794691  0.49377429    -0.70700
O36         O  0.07754309  0.11410510  0.49378235    -0.71400
O37         O  0.48128947  0.45503520  0.43667179    -0.71000
O38         O  0.45338733  0.49411054  0.08443450    -0.71600
O39         O  0.05189493  0.42391520  0.08439326    -0.71000
O40         O  0.12226465  0.09273019  0.08445559    -0.71700
O41         O  0.47638907  0.40635251  0.08393973    -0.71100
O42         O  0.13977056  0.03479667  0.08386768    -0.71600
O43         O  0.11803842  0.46873803  0.49371706    -0.71500
O44         O  0.09104186  0.49102029  0.43664077    -0.71300
C45         C  0.07106886  0.10619192  0.45167092     0.80500
C46         C  0.47022745  0.03729674  0.09600859     0.81000
C47         C  0.43987611  0.42944191  0.45165659     0.80000
C48         C  0.00870933  0.39753034  0.09601169     0.80300
C49         C  0.14862969  0.07595042  0.09600661     0.81500
C50         C  0.11657878  0.47519139  0.45160735     0.80500
Zn51       Zn  0.08960218  0.48641586  0.24863131     1.49700
Zn52       Zn  0.05981738  0.06802404  0.24866102     1.49400
Zn53       Zn  0.47808380  0.45646525  0.24865757     1.49100
Zn54       Zn  0.04250956  0.00362862  0.33274665     1.49500
O55         O  0.04250285  0.00363445  0.26868922    -1.80700
O56         O  0.13844247  0.03883810  0.21006257    -0.71400
O57         O  0.00743425  0.06439337  0.21009104    -0.70600
O58         O  0.48160618  0.40764307  0.21011197    -0.70700
O59         O  0.11846846  0.09507419  0.21027206    -0.71400
O60         O  0.05791711  0.42778882  0.21023616    -0.71000
O61         O  0.45114313  0.48806610  0.21024660    -0.71600
O62         O  0.47723570  0.46291805  0.35718653    -0.71000
O63         O  0.07277330  0.11463388  0.30059530    -0.71700
O64         O  0.43141970  0.42280337  0.30058301    -0.71100
O65         O  0.06711760  0.06887863  0.35719600    -0.71600
O66         O  0.08315701  0.47907732  0.35715500    -0.71500
O67         O  0.12325251  0.47345477  0.30053605    -0.71300
C68         C  0.14530754  0.07925886  0.19792155     0.80500
C69         C  0.46700452  0.03076975  0.19792349     0.81000
C70         C  0.01519754  0.40086961  0.19793426     0.80000
C71         C  0.43726940  0.43133135  0.34264468     0.80300
C72         C  0.07546303  0.10880152  0.34265642     0.81500
C73         C  0.11472329  0.47074694  0.34259865     0.80500
N74         N  0.18829727  0.10371218  0.12481810    -0.00100
C75         C  0.23394706  0.13281221  0.11287664     0.02500
C76         C  0.26084890  0.15626668  0.15012123    -0.20400
C77         C  0.23046906  0.14097520  0.18637442    -0.20600
C78         C  0.18630936  0.10888879  0.16967395     0.02400
H79         H  0.29875886  0.18038086  0.15110642     0.16200
H80         H  0.23991234  0.15064880  0.22120643     0.16200
N81         N  0.44249861  0.04918451  0.12482178    -0.00100
C82         C  0.41340221  0.06567188  0.11289330     0.02500
C83         C  0.39003744  0.06917125  0.15016107    -0.20400
C84         C  0.40537742  0.05418193  0.18641595    -0.20600
C85         C  0.43740400  0.04211507  0.16969396     0.02400
H86         H  0.36594723  0.08293700  0.15115548     0.16200
H87         H  0.39576570  0.05400100  0.22125794     0.16200
C88         C  0.39014343  0.13730462  0.02062879     0.83600
N89         N  0.34331167  0.12346267  0.02037136    -0.74700
C90         C  0.32887031  0.15594337  0.02058956     0.86000
N91         N  0.36192320  0.20278311  0.02025601    -0.74600
C92         C  0.40889633  0.21729028  0.02055073     0.86100
N93         N  0.42267556  0.18428989  0.02032767    -0.76400
N94         N  0.99679010  0.35789058  0.12483316    -0.00100
C95         C  0.98039559  0.31228950  0.11289256     0.02500
C96         C  0.47687722  0.28541785  0.15016273    -0.20400
C97         C  0.99177815  0.31576798  0.18643098    -0.20600
C98         C  0.00380315  0.35987696  0.16971334     0.02400
H99         H  0.46317723  0.24754167  0.15114443     0.16200
H100        H  0.99195943  0.30634040  0.22127227     0.16200
C101        C  0.44033749  0.26215911  0.04112468    -0.09900
C102        C  0.46226849  0.29147996  0.06952920    -0.11500
C103        C  0.41085255  0.08390774  0.06955891    -0.09900
C104        C  0.40354047  0.10589049  0.04119048    -0.11500
C105        C  0.28403198  0.14254200  0.04117472    -0.09900
C106        C  0.25474379  0.13528653  0.06955731    -0.11500
C107        C  0.30102059  0.36300515  0.29190093    -0.09900
C108        C  0.33105567  0.37043366  0.31953605    -0.11500
C109        C  0.18312836  0.40301426  0.29185574    -0.09900
C110        C  0.17565320  0.42559451  0.31946479    -0.11500
C111        C  0.14297666  0.24500753  0.29184848    -0.09900
C112        C  0.12045849  0.21494513  0.31951258    -0.11500
N113        N  0.08667508  0.14722667  0.87410142    -0.00100
C114        C  0.10233942  0.19311648  0.86262635     0.02500
C115        C  0.10769207  0.22032191  0.89996595    -0.20400
C116        C  0.09539792  0.19078690  0.93634659    -0.20600
C117        C  0.08291716  0.14621297  0.92024949     0.02400
H118        H  0.12135711  0.25820145  0.90084016     0.16200
H119        H  0.09687135  0.20114514  0.97113672     0.16200
N120        N  0.14192207  0.45953859  0.87402884    -0.00100
C121        C  0.17208107  0.44383487  0.86254697     0.02500
C122        C  0.19397424  0.43854432  0.89987567    -0.20400
C123        C  0.17681821  0.45090486  0.93625538    -0.20600
C124        C  0.14473201  0.46336203  0.92017083     0.02400
H125        H  0.21814303  0.42486134  0.90074874     0.16200
H126        H  0.18573538  0.44947054  0.97104059     0.16200
C127        C  0.19581314  0.37061610  0.77221817     0.83600
N128        N  0.16255360  0.32383737  0.77204913    -0.74700
C129        C  0.17540159  0.29012793  0.77216662     0.86000
N130        N  0.22216651  0.30369959  0.77201573    -0.74600
C131        C  0.25592777  0.35031741  0.77221471     0.86100
N132        N  0.24242211  0.38352653  0.77210644    -0.76400
N133        N  0.39880929  0.40411288  0.87408658    -0.00100
C134        C  0.35287253  0.37396319  0.86261004     0.02500
C135        C  0.32563960  0.35204704  0.89993863    -0.20400
C136        C  0.35520529  0.36918279  0.93631387    -0.20600
C137        C  0.39982482  0.40128000  0.92022624     0.02400
H138        H  0.28772858  0.32788211  0.90081698     0.16200
H139        H  0.34483560  0.36025209  0.97109946     0.16200
Zn140      Zn  0.04251109  0.00360681  0.96197768     1.49700
Zn141      Zn  0.06301315  0.06860845  0.54643582     1.49400
Zn142      Zn  0.47747505  0.45898396  0.54643731     1.49100
Zn143      Zn  0.08706617  0.48318531  0.54638988     1.49500
O144        O  0.04251369  0.00359484  0.52650887    -1.80700
O145        O  0.05518207  0.06478746  0.93668714    -0.71400
O146        O  0.01142371  0.06964597  0.58390896    -0.71200
O147        O  0.43197324  0.42794691  0.99377440    -0.70700
O148        O  0.07754298  0.11410510  0.99378230    -0.71400
O149        O  0.48128946  0.45503526  0.93667193    -0.71000
O150        O  0.45338728  0.49411041  0.58443464    -0.71600
O151        O  0.05189511  0.42391524  0.58439321    -0.71000
O152        O  0.12226453  0.09273008  0.58445578    -0.71700
O153        O  0.47638917  0.40635257  0.58393969    -0.71100
O154        O  0.13977050  0.03479664  0.58386757    -0.71600
O155        O  0.11803829  0.46873790  0.99371705    -0.71500
O156        O  0.09104192  0.49102048  0.93664080    -0.71300
C157        C  0.07106875  0.10619187  0.95167088     0.80500
C158        C  0.47022745  0.03729688  0.59600864     0.81000
C159        C  0.43987609  0.42944199  0.95165668     0.80000
C160        C  0.00870951  0.39753037  0.59601164     0.80300
C161        C  0.14862961  0.07595034  0.59600664     0.81500
C162        C  0.11657869  0.47519137  0.95160735     0.80500
Zn163      Zn  0.08960226  0.48641580  0.74863121     1.49700
Zn164      Zn  0.05981731  0.06802397  0.74866112     1.49400
Zn165      Zn  0.47808388  0.45646520  0.74865751     1.49100
Zn166      Zn  0.04250946  0.00362857  0.83274660     1.49500
O167        O  0.04250274  0.00363433  0.76868918    -1.80700
O168        O  0.13844234  0.03883810  0.71006247    -0.71400
O169        O  0.00743426  0.06439331  0.71009110    -0.70600
O170        O  0.48160607  0.40764296  0.71011194    -0.70700
O171        O  0.11846852  0.09507434  0.71027202    -0.71400
O172        O  0.05791701  0.42778869  0.71023613    -0.71000
O173        O  0.45114314  0.48806614  0.71024662    -0.71600
O174        O  0.47723572  0.46291800  0.85718665    -0.71000
O175        O  0.07277319  0.11463389  0.80059525    -0.71700
O176        O  0.43141978  0.42280334  0.80058308    -0.71100
O177        O  0.06711760  0.06887869  0.85719596    -0.71600
O178        O  0.08315707  0.47907752  0.85715495    -0.71500
O179        O  0.12325261  0.47345494  0.80053602    -0.71300
C180        C  0.14530755  0.07925893  0.69792151     0.80500
C181        C  0.46700448  0.03076969  0.69792351     0.81000
C182        C  0.01519743  0.40086947  0.69793426     0.80000
C183        C  0.43726943  0.43133131  0.84264477     0.80300
C184        C  0.07546299  0.10880156  0.84265638     0.81500
C185        C  0.11472334  0.47074711  0.84259860     0.80500
N186        N  0.18829725  0.10371208  0.62481807    -0.00100
C187        C  0.23394701  0.13281214  0.61287653     0.02500
C188        C  0.26084887  0.15626665  0.65012104    -0.20400
C189        C  0.23046916  0.14097523  0.68637432    -0.20600
C190        C  0.18630941  0.10888874  0.66967391     0.02400
H191        H  0.29875892  0.18038096  0.65110613     0.16200
H192        H  0.23991256  0.15064899  0.72120624     0.16200
N193        N  0.44249859  0.04918458  0.62482186    -0.00100
C194        C  0.41340218  0.06567190  0.61289333     0.02500
C195        C  0.39003747  0.06917135  0.65016113    -0.20400
C196        C  0.40537737  0.05418195  0.68641605    -0.20600
C197        C  0.43740399  0.04211511  0.66969402     0.02400
H198        H  0.36594736  0.08293722  0.65115552     0.16200
H199        H  0.39576559  0.05400098  0.72125795     0.16200
C200        C  0.39014335  0.13730456  0.52062879     0.83600
N201        N  0.34331160  0.12346268  0.52037130    -0.74700
C202        C  0.32887031  0.15594344  0.52058966     0.86000
N203        N  0.36192322  0.20278316  0.52025620    -0.74600
C204        C  0.40889631  0.21729026  0.52055079     0.86100
N205        N  0.42267548  0.18428983  0.52032779    -0.76400
N206        N  0.99679022  0.35789057  0.62483309    -0.00100
C207        C  0.98039566  0.31228946  0.61289253     0.02500
C208        C  0.47687738  0.28541782  0.65016263    -0.20400
C209        C  0.99177805  0.31576785  0.68643091    -0.20600
C210        C  0.00380304  0.35987684  0.66971332     0.02400
H211        H  0.46317735  0.24754168  0.65114428     0.16200
H212        H  0.99195921  0.30634014  0.72127228     0.16200
C213        C  0.44033750  0.26215903  0.54112476    -0.09900
C214        C  0.46226854  0.29147995  0.56952920    -0.11500
C215        C  0.41085256  0.08390769  0.56955887    -0.09900
C216        C  0.40354039  0.10589039  0.54119042    -0.11500
C217        C  0.28403193  0.14254208  0.54117468    -0.09900
C218        C  0.25474365  0.13528648  0.56955720    -0.11500
C219        C  0.30102051  0.36300507  0.79190095    -0.09900
C220        C  0.33105556  0.37043360  0.81953612    -0.11500
C221        C  0.18312825  0.40301420  0.79185565    -0.09900
C222        C  0.17565308  0.42559442  0.81946475    -0.11500
C223        C  0.14297669  0.24500751  0.79184845    -0.09900
C224        C  0.12045866  0.21494523  0.81951265    -0.11500
N225        N  0.08667500  0.64722668  0.37410144    -0.00100
C226        C  0.10233935  0.69311651  0.36262635     0.02500
C227        C  0.10769212  0.72032193  0.39996599    -0.20400
C228        C  0.09539783  0.69078690  0.43634663    -0.20600
C229        C  0.08291707  0.64621297  0.42024950     0.02400
H230        H  0.12135725  0.75820151  0.40084025     0.16200
H231        H  0.09687120  0.70114507  0.47113674     0.16200
N232        N  0.14192205  0.95953852  0.37402887    -0.00100
C233        C  0.17208110  0.94383490  0.36254699     0.02500
C234        C  0.19397431  0.93854439  0.39987566    -0.20400
C235        C  0.17681821  0.95090485  0.43625537    -0.20600
C236        C  0.14473201  0.96336198  0.42017086     0.02400
H237        H  0.21814312  0.92486146  0.40074870     0.16200
H238        H  0.18573536  0.94947055  0.47104061     0.16200
C239        C  0.19581321  0.87061614  0.27221829     0.83600
N240        N  0.16255364  0.82383741  0.27204919    -0.74700
C241        C  0.17540159  0.79012794  0.27216655     0.86000
N242        N  0.22216651  0.80369959  0.27201578    -0.74600
C243        C  0.25592778  0.85031742  0.27221482     0.86100
N244        N  0.24242216  0.88352656  0.27210653    -0.76400
N245        N  0.39880929  0.90411290  0.37408655    -0.00100
C246        C  0.35287255  0.87396317  0.36260999     0.02500
C247        C  0.32563962  0.85204711  0.39993861    -0.20400
C248        C  0.35520525  0.86918284  0.43631387    -0.20600
C249        C  0.39982482  0.90127999  0.42022620     0.02400
H250        H  0.28772854  0.82788213  0.40081694     0.16200
H251        H  0.34483555  0.86025216  0.47109946     0.16200
Zn252      Zn  0.04251099  0.50360682  0.46197768     1.49700
Zn253      Zn  0.06301306  0.56860845  0.04643568     1.49400
Zn254      Zn  0.47747514  0.95898394  0.04643738     1.49100
Zn255      Zn  0.08706628  0.98318536  0.04638996     1.49500
O256        O  0.04251365  0.50359486  0.02650889    -1.80700
O257        O  0.05518201  0.56478749  0.43668711    -0.71400
O258        O  0.01142383  0.56964592  0.08390905    -0.71200
O259        O  0.43197335  0.92794686  0.49377432    -0.70700
O260        O  0.07754290  0.61410503  0.49378233    -0.71400
O261        O  0.48128946  0.95503532  0.43667177    -0.71000
O262        O  0.45338714  0.99411039  0.08443450    -0.71600
O263        O  0.05189496  0.92391526  0.08439332    -0.71000
O264        O  0.12226458  0.59273006  0.08445563    -0.71700
O265        O  0.47638906  0.90635243  0.08393971    -0.71100
O266        O  0.13977056  0.53479661  0.08386765    -0.71600
O267        O  0.11803826  0.96873793  0.49371705    -0.71500
O268        O  0.09104200  0.99102053  0.43664076    -0.71300
C269        C  0.07106871  0.60619188  0.45167089     0.80500
C270        C  0.47022753  0.53729688  0.09600859     0.81000
C271        C  0.43987612  0.92944197  0.45165659     0.80000
C272        C  0.00870934  0.89753031  0.09601169     0.80300
C273        C  0.14862964  0.57595033  0.09600663     0.81500
C274        C  0.11657872  0.97519138  0.45160735     0.80500
Zn275      Zn  0.08960220  0.98641580  0.24863131     1.49700
Zn276      Zn  0.05981724  0.56802396  0.24866102     1.49400
Zn277      Zn  0.47808379  0.95646520  0.24865756     1.49100
Zn278      Zn  0.04250960  0.50362858  0.33274666     1.49500
O279        O  0.04250284  0.50363442  0.26868922    -1.80700
O280        O  0.13844242  0.53883819  0.21006259    -0.71400
O281        O  0.00743425  0.56439327  0.21009107    -0.70600
O282        O  0.48160621  0.90764298  0.21011197    -0.70700
O283        O  0.11846842  0.59507429  0.21027205    -0.71400
O284        O  0.05791707  0.92778869  0.21023614    -0.71000
O285        O  0.45114310  0.98806617  0.21024667    -0.71600
O286        O  0.47723575  0.96291795  0.35718648    -0.71000
O287        O  0.07277331  0.61463389  0.30059525    -0.71700
O288        O  0.43141962  0.92280336  0.30058300    -0.71100
O289        O  0.06711778  0.56887875  0.35719601    -0.71600
O290        O  0.08315707  0.97907749  0.35715497    -0.71500
O291        O  0.12325261  0.97345490  0.30053606    -0.71300
C292        C  0.14530752  0.57925895  0.19792158     0.80500
C293        C  0.46700456  0.53076968  0.19792345     0.81000
C294        C  0.01519749  0.90086953  0.19793426     0.80000
C295        C  0.43726939  0.93133132  0.34264466     0.80300
C296        C  0.07546310  0.60880160  0.34265637     0.81500
C297        C  0.11472330  0.97074701  0.34259865     0.80500
N298        N  0.18829722  0.60371210  0.12481814    -0.00100
C299        C  0.23394700  0.63281218  0.11287664     0.02500
C300        C  0.26084877  0.65626669  0.15012118    -0.20400
C301        C  0.23046906  0.64097528  0.18637442    -0.20600
C302        C  0.18630933  0.60888878  0.16967397     0.02400
H303        H  0.29875890  0.68038100  0.15110631     0.16200
H304        H  0.23991242  0.65064900  0.22120636     0.16200
N305        N  0.44249863  0.54918451  0.12482178    -0.00100
C306        C  0.41340217  0.56567183  0.11289330     0.02500
C307        C  0.39003758  0.56917135  0.15016112    -0.20400
C308        C  0.40537750  0.55418196  0.18641597    -0.20600
C309        C  0.43740408  0.54211510  0.16969395     0.02400
H310        H  0.36594738  0.58293724  0.15115557     0.16200
H311        H  0.39576572  0.55400092  0.22125795     0.16200
C312        C  0.39014337  0.63730457  0.02062880     0.83600
N313        N  0.34331160  0.62346266  0.02037139    -0.74700
C314        C  0.32887026  0.65594339  0.02058955     0.86000
N315        N  0.36192317  0.70278311  0.02025600    -0.74600
C316        C  0.40889628  0.71729024  0.02055075     0.86100
N317        N  0.42267549  0.68428983  0.02032766    -0.76400
N318        N  0.99679009  0.85789053  0.12483314    -0.00100
C319        C  0.98039548  0.81228941  0.11289257     0.02500
C320        C  0.47687727  0.78541781  0.15016270    -0.20400
C321        C  0.99177813  0.81576791  0.18643099    -0.20600
C322        C  0.00380303  0.85987687  0.16971333     0.02400
H323        H  0.46317716  0.74754165  0.15114441     0.16200
H324        H  0.99195940  0.80634031  0.22127223     0.16200
C325        C  0.44033748  0.76215904  0.04112470    -0.09900
C326        C  0.46226855  0.79147991  0.06952919    -0.11500
C327        C  0.41085253  0.58390767  0.06955890    -0.09900
C328        C  0.40354047  0.60589044  0.04119045    -0.11500
C329        C  0.28403193  0.64254208  0.04117470    -0.09900
C330        C  0.25474372  0.63528649  0.06955732    -0.11500
C331        C  0.30102049  0.86300505  0.29190100    -0.09900
C332        C  0.33105565  0.87043358  0.31953605    -0.11500
C333        C  0.18312836  0.90301423  0.29185577    -0.09900
C334        C  0.17565307  0.92559440  0.31946480    -0.11500
C335        C  0.14297670  0.74500753  0.29184845    -0.09900
C336        C  0.12045857  0.71494524  0.31951263    -0.11500
N337        N  0.08667516  0.64722667  0.87410143    -0.00100
C338        C  0.10233947  0.69311648  0.86262637     0.02500
C339        C  0.10769215  0.72032195  0.89996596    -0.20400
C340        C  0.09539779  0.69078685  0.93634658    -0.20600
C341        C  0.08291717  0.64621296  0.92024949     0.02400
H342        H  0.12135715  0.75820136  0.90084017     0.16200
H343        H  0.09687102  0.70114504  0.97113669     0.16200
N344        N  0.14192211  0.95953854  0.87402883    -0.00100
C345        C  0.17208121  0.94383495  0.86254695     0.02500
C346        C  0.19397436  0.93854439  0.89987568    -0.20400
C347        C  0.17681832  0.95090497  0.93625537    -0.20600
C348        C  0.14473207  0.96336202  0.92017082     0.02400
H349        H  0.21814308  0.92486139  0.90074878     0.16200
H350        H  0.18573555  0.94947079  0.97104059     0.16200
C351        C  0.19581316  0.87061602  0.77221818     0.83600
N352        N  0.16255361  0.82383730  0.77204913    -0.74700
C353        C  0.17540157  0.79012784  0.77216662     0.86000
N354        N  0.22216651  0.80369948  0.77201574    -0.74600
C355        C  0.25592778  0.85031731  0.77221472     0.86100
N356        N  0.24242213  0.88352643  0.77210643    -0.76400
N357        N  0.39880927  0.90411286  0.87408666    -0.00100
C358        C  0.35287250  0.87396316  0.86261007     0.02500
C359        C  0.32563949  0.85204703  0.89993865    -0.20400
C360        C  0.35520515  0.86918273  0.93631397    -0.20600
C361        C  0.39982476  0.90127991  0.92022629     0.02400
H362        H  0.28772847  0.82788213  0.90081699     0.16200
H363        H  0.34483547  0.86025206  0.97109941     0.16200
Zn364      Zn  0.04251100  0.50360696  0.96197769     1.49700
Zn365      Zn  0.06301299  0.56860836  0.54643581     1.49400
Zn366      Zn  0.47747507  0.95898392  0.54643732     1.49100
Zn367      Zn  0.08706624  0.98318545  0.54638988     1.49500
O368        O  0.04251372  0.50359480  0.52650885    -1.80700
O369        O  0.05518190  0.56478744  0.93668710    -0.71400
O370        O  0.01142366  0.56964581  0.58390899    -0.71200
O371        O  0.43197329  0.92794681  0.99377441    -0.70700
O372        O  0.07754284  0.61410501  0.99378231    -0.71400
O373        O  0.48128947  0.95503511  0.93667192    -0.71000
O374        O  0.45338722  0.99411051  0.58443458    -0.71600
O375        O  0.05189495  0.92391522  0.58439320    -0.71000
O376        O  0.12226449  0.59272997  0.58445573    -0.71700
O377        O  0.47638909  0.90635250  0.58393967    -0.71100
O378        O  0.13977054  0.53479657  0.58386759    -0.71600
O379        O  0.11803852  0.96873814  0.99371707    -0.71500
O380        O  0.09104194  0.99102042  0.93664077    -0.71300
C381        C  0.07106865  0.60619183  0.95167087     0.80500
C382        C  0.47022747  0.53729676  0.59600867     0.81000
C383        C  0.43987609  0.92944186  0.95165670     0.80000
C384        C  0.00870933  0.89753031  0.59601161     0.80300
C385        C  0.14862963  0.57595029  0.59600659     0.81500
C386        C  0.11657882  0.97519146  0.95160735     0.80500
Zn387      Zn  0.08960210  0.98641573  0.74863122     1.49700
Zn388      Zn  0.05981734  0.56802392  0.74866111     1.49400
Zn389      Zn  0.47808373  0.95646514  0.74865770     1.49100
Zn390      Zn  0.04250952  0.50362852  0.83274658     1.49500
O391        O  0.04250292  0.50363442  0.76868915    -1.80700
O392        O  0.13844241  0.53883810  0.71006247    -0.71400
O393        O  0.00743429  0.56439331  0.71009109    -0.70600
O394        O  0.48160612  0.90764295  0.71011200    -0.70700
O395        O  0.11846839  0.59507419  0.71027199    -0.71400
O396        O  0.05791706  0.92778868  0.71023613    -0.71000
O397        O  0.45114302  0.98806609  0.71024667    -0.71600
O398        O  0.47723571  0.96291810  0.85718671    -0.71000
O399        O  0.07277327  0.61463386  0.80059525    -0.71700
O400        O  0.43141977  0.92280343  0.80058317    -0.71100
O401        O  0.06711767  0.56887866  0.85719597    -0.71600
O402        O  0.08315707  0.97907746  0.85715493    -0.71500
O403        O  0.12325260  0.97345486  0.80053600    -0.71300
C404        C  0.14530749  0.57925887  0.69792147     0.80500
C405        C  0.46700455  0.53076974  0.69792353     0.81000
C406        C  0.01519749  0.90086949  0.69793423     0.80000
C407        C  0.43726942  0.93133138  0.84264484     0.80300
C408        C  0.07546308  0.60880155  0.84265638     0.81500
C409        C  0.11472334  0.97074703  0.84259859     0.80500
N410        N  0.18829727  0.60371212  0.62481804    -0.00100
C411        C  0.23394702  0.63281224  0.61287654     0.02500
C412        C  0.26084887  0.65626675  0.65012110    -0.20400
C413        C  0.23046906  0.64097525  0.68637432    -0.20600
C414        C  0.18630934  0.60888876  0.66967387     0.02400
H415        H  0.29875879  0.68038094  0.65110626     0.16200
H416        H  0.23991241  0.65064893  0.72120627     0.16200
N417        N  0.44249857  0.54918447  0.62482185    -0.00100
C418        C  0.41340219  0.56567184  0.61289332     0.02500
C419        C  0.39003752  0.56917134  0.65016112    -0.20400
C420        C  0.40537751  0.55418207  0.68641604    -0.20600
C421        C  0.43740405  0.54211513  0.66969404     0.02400
H422        H  0.36594736  0.58293713  0.65115549     0.16200
H423        H  0.39576577  0.55400116  0.72125799     0.16200
C424        C  0.39014343  0.63730461  0.52062877     0.83600
N425        N  0.34331167  0.62346269  0.52037129    -0.74700
C426        C  0.32887033  0.65594342  0.52058963     0.86000
N427        N  0.36192323  0.70278314  0.52025618    -0.74600
C428        C  0.40889632  0.71729026  0.52055079     0.86100
N429        N  0.42267555  0.68428987  0.52032780    -0.76400
N430        N  0.99679005  0.85789052  0.62483308    -0.00100
C431        C  0.98039539  0.81228938  0.61289256     0.02500
C432        C  0.47687719  0.78541778  0.65016269    -0.20400
C433        C  0.99177815  0.81576791  0.68643088    -0.20600
C434        C  0.00380312  0.85987687  0.66971327     0.02400
H435        H  0.46317712  0.74754165  0.65114439     0.16200
H436        H  0.99195951  0.80634031  0.72127229     0.16200
C437        C  0.44033742  0.76215898  0.54112477    -0.09900
C438        C  0.46226847  0.79147988  0.56952921    -0.11500
C439        C  0.41085258  0.58390775  0.56955891    -0.09900
C440        C  0.40354044  0.60589043  0.54119041    -0.11500
C441        C  0.28403196  0.64254206  0.54117469    -0.09900
C442        C  0.25474374  0.63528660  0.56955723    -0.11500
C443        C  0.30102055  0.86300501  0.79190093    -0.09900
C444        C  0.33105562  0.87043367  0.81953613    -0.11500
C445        C  0.18312830  0.90301413  0.79185568    -0.09900
C446        C  0.17565316  0.92559438  0.81946477    -0.11500
C447        C  0.14297663  0.74500743  0.79184844    -0.09900
C448        C  0.12045853  0.71494516  0.81951263    -0.11500
N449        N  0.58667510  0.14722662  0.37410147    -0.00100
C450        C  0.60233940  0.19311642  0.36262635     0.02500
C451        C  0.60769211  0.22032185  0.39996598    -0.20400
C452        C  0.59539795  0.19078685  0.43634663    -0.20600
C453        C  0.58291722  0.14621296  0.42024954     0.02400
H454        H  0.62135714  0.25820136  0.40084020     0.16200
H455        H  0.59687136  0.20114505  0.47113677     0.16200
N456        N  0.64192216  0.45953863  0.37402887    -0.00100
C457        C  0.67208120  0.44383499  0.36254699     0.02500
C458        C  0.69397438  0.43854444  0.39987565    -0.20400
C459        C  0.67681835  0.45090497  0.43625538    -0.20600
C460        C  0.64473214  0.46336212  0.42017087     0.02400
H461        H  0.71814316  0.42486146  0.40074867     0.16200
H462        H  0.68573552  0.44947062  0.47104058     0.16200
C463        C  0.69581319  0.37061615  0.27221829     0.83600
N464        N  0.66255364  0.32383743  0.27204919    -0.74700
C465        C  0.67540159  0.29012796  0.27216660     0.86000
N466        N  0.72216653  0.30369964  0.27201579    -0.74600
C467        C  0.75592780  0.35031747  0.27221479     0.86100
N468        N  0.74242215  0.38352660  0.27210653    -0.76400
N469        N  0.89880928  0.40411283  0.37408654    -0.00100
C470        C  0.85287251  0.37396323  0.36261001     0.02500
C471        C  0.82563950  0.35204719  0.39993862    -0.20400
C472        C  0.85520516  0.36918286  0.43631388    -0.20600
C473        C  0.89982480  0.40127992  0.42022619     0.02400
H474        H  0.78772843  0.32788224  0.40081694     0.16200
H475        H  0.84483541  0.36025215  0.47109944     0.16200
Zn476      Zn  0.54251098  0.00360690  0.46197768     1.49700
Zn477      Zn  0.56301324  0.06860851  0.04643567     1.49400
Zn478      Zn  0.97747509  0.45898400  0.04643738     1.49100
Zn479      Zn  0.58706619  0.48318537  0.04638995     1.49500
O480        O  0.54251381  0.00359488  0.02650889    -1.80700
O481        O  0.55518214  0.06478756  0.43668714    -0.71400
O482        O  0.51142374  0.06964573  0.08390901    -0.71200
O483        O  0.93197334  0.42794692  0.49377431    -0.70700
O484        O  0.57754307  0.11410511  0.49378236    -0.71400
O485        O  0.98128946  0.45503520  0.43667179    -0.71000
O486        O  0.95338736  0.49411055  0.08443451    -0.71600
O487        O  0.55189492  0.42391519  0.08439327    -0.71000
O488        O  0.62226469  0.09273021  0.08445560    -0.71700
O489        O  0.97638907  0.40635252  0.08393973    -0.71100
O490        O  0.63977054  0.03479667  0.08386768    -0.71600
O491        O  0.61803840  0.46873803  0.49371706    -0.71500
O492        O  0.59104184  0.49102029  0.43664077    -0.71300
C493        C  0.57106884  0.10619192  0.45167092     0.80500
C494        C  0.97022742  0.03729674  0.09600860     0.81000
C495        C  0.93987610  0.42944191  0.45165660     0.80000
C496        C  0.50870931  0.39753031  0.09601168     0.80300
C497        C  0.64862969  0.07595042  0.09600662     0.81500
C498        C  0.61657876  0.47519139  0.45160735     0.80500
Zn499      Zn  0.58960234  0.48641586  0.24863130     1.49700
Zn500      Zn  0.55981737  0.06802404  0.24866102     1.49400
Zn501      Zn  0.97808378  0.45646526  0.24865757     1.49100
Zn502      Zn  0.54250955  0.00362862  0.33274665     1.49500
O503        O  0.54250284  0.00363445  0.26868922    -1.80700
O504        O  0.63844245  0.03883810  0.21006257    -0.71400
O505        O  0.50743425  0.06439337  0.21009105    -0.70600
O506        O  0.98160617  0.40764307  0.21011197    -0.70700
O507        O  0.61846844  0.09507419  0.21027207    -0.71400
O508        O  0.55791713  0.42778881  0.21023615    -0.71000
O509        O  0.95114311  0.48806610  0.21024660    -0.71600
O510        O  0.97723573  0.46291804  0.35718654    -0.71000
O511        O  0.57277328  0.11463388  0.30059530    -0.71700
O512        O  0.93141973  0.42280336  0.30058301    -0.71100
O513        O  0.56711758  0.06887863  0.35719601    -0.71600
O514        O  0.58315699  0.47907732  0.35715500    -0.71500
O515        O  0.62325254  0.47345476  0.30053607    -0.71300
C516        C  0.64530752  0.07925886  0.19792155     0.80500
C517        C  0.96700452  0.03076975  0.19792349     0.81000
C518        C  0.51519755  0.40086961  0.19793425     0.80000
C519        C  0.93726944  0.43133132  0.34264468     0.80300
C520        C  0.57546302  0.10880152  0.34265642     0.81500
C521        C  0.61472328  0.47074694  0.34259866     0.80500
N522        N  0.68829726  0.10371218  0.12481811    -0.00100
C523        C  0.73394704  0.13281221  0.11287664     0.02500
C524        C  0.76084888  0.15626668  0.15012123    -0.20400
C525        C  0.73046905  0.14097520  0.18637442    -0.20600
C526        C  0.68630934  0.10888879  0.16967396     0.02400
H527        H  0.79875884  0.18038086  0.15110642     0.16200
H528        H  0.73991232  0.15064880  0.22120644     0.16200
N529        N  0.94249859  0.04918451  0.12482179    -0.00100
C530        C  0.91340219  0.06567188  0.11289330     0.02500
C531        C  0.89003742  0.06917124  0.15016108    -0.20400
C532        C  0.90537741  0.05418194  0.18641596    -0.20600
C533        C  0.93740400  0.04211507  0.16969396     0.02400
H534        H  0.86594723  0.08293700  0.15115550     0.16200
H535        H  0.89576570  0.05400104  0.22125792     0.16200
C536        C  0.89014341  0.13730462  0.02062879     0.83600
N537        N  0.84331165  0.12346267  0.02037136    -0.74700
C538        C  0.82887029  0.15594337  0.02058956     0.86000
N539        N  0.86192318  0.20278311  0.02025601    -0.74600
C540        C  0.90889631  0.21729029  0.02055074     0.86100
N541        N  0.92267554  0.18428989  0.02032768    -0.76400
N542        N  0.49679006  0.35789055  0.12483316    -0.00100
C543        C  0.48039538  0.31228942  0.11289260     0.02500
C544        C  0.97687729  0.28541790  0.15016270    -0.20400
C545        C  0.49177816  0.31576797  0.18643098    -0.20600
C546        C  0.50380315  0.35987694  0.16971333     0.02400
H547        H  0.96317720  0.24754173  0.15114439     0.16200
H548        H  0.49195952  0.30634043  0.22127227     0.16200
C549        C  0.94033748  0.26215912  0.04112471    -0.09900
C550        C  0.96226854  0.29148000  0.06952920    -0.11500
C551        C  0.91085253  0.08390774  0.06955891    -0.09900
C552        C  0.90354045  0.10589049  0.04119048    -0.11500
C553        C  0.78403196  0.14254200  0.04117472    -0.09900
C554        C  0.75474377  0.13528653  0.06955731    -0.11500
C555        C  0.80102057  0.36300515  0.29190093    -0.09900
C556        C  0.83105566  0.37043367  0.31953605    -0.11500
C557        C  0.68312834  0.40301426  0.29185574    -0.09900
C558        C  0.67565318  0.42559451  0.31946479    -0.11500
C559        C  0.64297665  0.24500753  0.29184848    -0.09900
C560        C  0.62045847  0.21494513  0.31951258    -0.11500
N561        N  0.58667506  0.14722667  0.87410142    -0.00100
C562        C  0.60233940  0.19311648  0.86262635     0.02500
C563        C  0.60769205  0.22032191  0.89996595    -0.20400
C564        C  0.59539790  0.19078690  0.93634659    -0.20600
C565        C  0.58291713  0.14621297  0.92024949     0.02400
H566        H  0.62135709  0.25820145  0.90084016     0.16200
H567        H  0.59687133  0.20114514  0.97113672     0.16200
N568        N  0.64192207  0.45953858  0.87402886    -0.00100
C569        C  0.67208106  0.44383486  0.86254698     0.02500
C570        C  0.69397424  0.43854431  0.89987567    -0.20400
C571        C  0.67681820  0.45090487  0.93625537    -0.20600
C572        C  0.64473200  0.46336202  0.92017085     0.02400
H573        H  0.71814303  0.42486135  0.90074872     0.16200
H574        H  0.68573538  0.44947058  0.97104062     0.16200
C575        C  0.69581312  0.37061610  0.77221817     0.83600
N576        N  0.66255358  0.32383737  0.77204913    -0.74700
C577        C  0.67540157  0.29012793  0.77216662     0.86000
N578        N  0.72216649  0.30369959  0.77201573    -0.74600
C579        C  0.75592776  0.35031741  0.77221471     0.86100
N580        N  0.74242209  0.38352653  0.77210644    -0.76400
N581        N  0.89880931  0.40411290  0.87408659    -0.00100
C582        C  0.85287254  0.37396321  0.86261004     0.02500
C583        C  0.82563959  0.35204705  0.89993863    -0.20400
C584        C  0.85520528  0.36918279  0.93631387    -0.20600
C585        C  0.89982482  0.40128001  0.92022624     0.02400
H586        H  0.78772857  0.32788211  0.90081697     0.16200
H587        H  0.84483558  0.36025208  0.97109946     0.16200
Zn588      Zn  0.54251108  0.00360681  0.96197768     1.49700
Zn589      Zn  0.56301314  0.06860845  0.54643582     1.49400
Zn590      Zn  0.97747522  0.45898395  0.54643731     1.49100
Zn591      Zn  0.58706614  0.48318531  0.54638988     1.49500
O592        O  0.54251368  0.00359485  0.52650887    -1.80700
O593        O  0.55518206  0.06478746  0.93668714    -0.71400
O594        O  0.51142368  0.06964592  0.58390898    -0.71200
O595        O  0.93197322  0.42794691  0.99377440    -0.70700
O596        O  0.57754300  0.11410510  0.99378231    -0.71400
O597        O  0.98128945  0.45503526  0.93667195    -0.71000
O598        O  0.95338731  0.49411040  0.58443463    -0.71600
O599        O  0.55189500  0.42391524  0.58439319    -0.71000
O600        O  0.62226457  0.09273011  0.58445581    -0.71700
O601        O  0.97638929  0.40635258  0.58393966    -0.71100
O602        O  0.63977048  0.03479662  0.58386756    -0.71600
O603        O  0.61803827  0.46873790  0.99371706    -0.71500
O604        O  0.59104190  0.49102047  0.93664080    -0.71300
C605        C  0.57106873  0.10619187  0.95167088     0.80500
C606        C  0.97022752  0.03729688  0.59600864     0.81000
C607        C  0.93987607  0.42944199  0.95165669     0.80000
C608        C  0.50870942  0.39753037  0.59601164     0.80300
C609        C  0.64862964  0.07595033  0.59600663     0.81500
C610        C  0.61657867  0.47519137  0.95160735     0.80500
Zn611      Zn  0.58960227  0.48641580  0.74863122     1.49700
Zn612      Zn  0.55981730  0.06802396  0.74866112     1.49400
Zn613      Zn  0.97808387  0.45646520  0.74865751     1.49100
Zn614      Zn  0.54250947  0.00362857  0.83274660     1.49500
O615        O  0.54250284  0.00363434  0.76868918    -1.80700
O616        O  0.63844232  0.03883811  0.71006247    -0.71400
O617        O  0.50743422  0.06439326  0.71009109    -0.70600
O618        O  0.98160607  0.40764296  0.71011194    -0.70700
O619        O  0.61846852  0.09507435  0.71027201    -0.71400
O620        O  0.55791700  0.42778870  0.71023613    -0.71000
O621        O  0.95114313  0.48806614  0.71024662    -0.71600
O622        O  0.97723581  0.46291791  0.85718665    -0.71000
O623        O  0.57277317  0.11463389  0.80059525    -0.71700
O624        O  0.93141978  0.42280339  0.80058309    -0.71100
O625        O  0.56711758  0.06887869  0.85719596    -0.71600
O626        O  0.58315709  0.47907751  0.85715489    -0.71500
O627        O  0.62325273  0.47345497  0.80053603    -0.71300
C628        C  0.64530754  0.07925893  0.69792150     0.80500
C629        C  0.96700456  0.03076969  0.69792349     0.81000
C630        C  0.51519742  0.40086947  0.69793426     0.80000
C631        C  0.93726948  0.43133129  0.84264477     0.80300
C632        C  0.57546297  0.10880156  0.84265638     0.81500
C633        C  0.61472339  0.47074711  0.84259860     0.80500
N634        N  0.68829728  0.10371203  0.62481808    -0.00100
C635        C  0.73394702  0.13281213  0.61287653     0.02500
C636        C  0.76084889  0.15626668  0.65012105    -0.20400
C637        C  0.73046916  0.14097524  0.68637431    -0.20600
C638        C  0.68630941  0.10888872  0.66967391     0.02400
H639        H  0.79875892  0.18038101  0.65110615     0.16200
H640        H  0.73991253  0.15064902  0.72120624     0.16200
N641        N  0.94249859  0.04918452  0.62482183    -0.00100
C642        C  0.91340219  0.06567188  0.61289333     0.02500
C643        C  0.89003751  0.06917135  0.65016116    -0.20400
C644        C  0.90537748  0.05418197  0.68641605    -0.20600
C645        C  0.93740402  0.04211506  0.66969400     0.02400
H646        H  0.86594739  0.08293718  0.65115561     0.16200
H647        H  0.89576576  0.05400101  0.72125801     0.16200
C648        C  0.89014333  0.13730457  0.52062879     0.83600
N649        N  0.84331158  0.12346268  0.52037129    -0.74700
C650        C  0.82887029  0.15594345  0.52058966     0.86000
N651        N  0.86192321  0.20278317  0.52025621    -0.74600
C652        C  0.90889631  0.21729027  0.52055080     0.86100
N653        N  0.92267546  0.18428983  0.52032779    -0.76400
N654        N  0.49679018  0.35789057  0.62483309    -0.00100
C655        C  0.48039563  0.31228947  0.61289252     0.02500
C656        C  0.97687736  0.28541781  0.65016265    -0.20400
C657        C  0.49177807  0.31576785  0.68643090    -0.20600
C658        C  0.50380304  0.35987684  0.66971331     0.02400
H659        H  0.96317736  0.24754168  0.65114429     0.16200
H660        H  0.49195923  0.30634015  0.72127227     0.16200
C661        C  0.94033754  0.26215903  0.54112476    -0.09900
C662        C  0.96226871  0.29147995  0.56952917    -0.11500
C663        C  0.91085254  0.08390768  0.56955887    -0.09900
C664        C  0.90354037  0.10589039  0.54119042    -0.11500
C665        C  0.78403192  0.14254208  0.54117467    -0.09900
C666        C  0.75474366  0.13528649  0.56955719    -0.11500
C667        C  0.80102049  0.36300507  0.79190095    -0.09900
C668        C  0.83105555  0.37043360  0.81953613    -0.11500
C669        C  0.68312824  0.40301420  0.79185565    -0.09900
C670        C  0.67565307  0.42559442  0.81946476    -0.11500
C671        C  0.64297667  0.24500751  0.79184845    -0.09900
C672        C  0.62045864  0.21494523  0.81951265    -0.11500
N673        N  0.58667514  0.64722671  0.37410145    -0.00100
C674        C  0.60233940  0.69311651  0.36262635     0.02500
C675        C  0.60769210  0.72032191  0.39996599    -0.20400
C676        C  0.59539781  0.69078688  0.43634662    -0.20600
C677        C  0.58291712  0.64621298  0.42024950     0.02400
H678        H  0.62135718  0.75820149  0.40084023     0.16200
H679        H  0.59687113  0.70114506  0.47113673     0.16200
N680        N  0.64192206  0.95953853  0.37402887    -0.00100
C681        C  0.67208111  0.94383490  0.36254699     0.02500
C682        C  0.69397430  0.93854438  0.39987566    -0.20400
C683        C  0.67681820  0.95090485  0.43625538    -0.20600
C684        C  0.64473200  0.96336198  0.42017086     0.02400
H685        H  0.71814311  0.92486145  0.40074871     0.16200
H686        H  0.68573534  0.94947054  0.47104062     0.16200
C687        C  0.69581319  0.87061614  0.27221829     0.83600
N688        N  0.66255362  0.82383741  0.27204919    -0.74700
C689        C  0.67540157  0.79012794  0.27216655     0.86000
N690        N  0.72216649  0.80369959  0.27201578    -0.74600
C691        C  0.75592776  0.85031742  0.27221482     0.86100
N692        N  0.74242215  0.88352656  0.27210653    -0.76400
N693        N  0.89880928  0.90411291  0.37408655    -0.00100
C694        C  0.85287254  0.87396318  0.36261000     0.02500
C695        C  0.82563961  0.85204712  0.39993862    -0.20400
C696        C  0.85520526  0.86918285  0.43631387    -0.20600
C697        C  0.89982484  0.90128001  0.42022619     0.02400
H698        H  0.78772854  0.82788211  0.40081696     0.16200
H699        H  0.84483556  0.86025210  0.47109944     0.16200
Zn700      Zn  0.54251098  0.50360682  0.46197768     1.49700
Zn701      Zn  0.56301306  0.56860845  0.04643568     1.49400
Zn702      Zn  0.97747513  0.95898394  0.04643738     1.49100
Zn703      Zn  0.58706627  0.98318536  0.04638996     1.49500
O704        O  0.54251365  0.50359487  0.02650889    -1.80700
O705        O  0.55518200  0.56478749  0.43668711    -0.71400
O706        O  0.51142379  0.56964593  0.08390902    -0.71200
O707        O  0.93197338  0.92794691  0.49377429    -0.70700
O708        O  0.57754288  0.61410503  0.49378234    -0.71400
O709        O  0.98128955  0.95503523  0.43667178    -0.71000
O710        O  0.95338713  0.99411039  0.08443449    -0.71600
O711        O  0.55189496  0.92391527  0.08439332    -0.71000
O712        O  0.62226456  0.59273005  0.08445565    -0.71700
O713        O  0.97638907  0.90635244  0.08393970    -0.71100
O714        O  0.63977055  0.53479662  0.08386765    -0.71600
O715        O  0.61803824  0.96873793  0.49371705    -0.71500
O716        O  0.59104197  0.99102052  0.43664076    -0.71300
C717        C  0.57106870  0.60619188  0.45167089     0.80500
C718        C  0.97022758  0.53729688  0.09600861     0.81000
C719        C  0.93987618  0.92944196  0.45165658     0.80000
C720        C  0.50870935  0.89753031  0.09601170     0.80300
C721        C  0.64862963  0.57595033  0.09600664     0.81500
C722        C  0.61657870  0.97519138  0.45160734     0.80500
Zn723      Zn  0.58960220  0.98641581  0.24863131     1.49700
Zn724      Zn  0.55981724  0.56802396  0.24866101     1.49400
Zn725      Zn  0.97808377  0.95646521  0.24865757     1.49100
Zn726      Zn  0.54250957  0.50362857  0.33274666     1.49500
O727        O  0.54250289  0.50363441  0.26868921    -1.80700
O728        O  0.63844251  0.53883821  0.21006259    -0.71400
O729        O  0.50743425  0.56439327  0.21009107    -0.70600
O730        O  0.98160615  0.90764302  0.21011200    -0.70700
O731        O  0.61846845  0.59507428  0.21027206    -0.71400
O732        O  0.55791715  0.92778873  0.21023617    -0.71000
O733        O  0.95114308  0.98806618  0.21024668    -0.71600
O734        O  0.97723574  0.96291795  0.35718648    -0.71000
O735        O  0.57277330  0.61463389  0.30059525    -0.71700
O736        O  0.93141960  0.92280337  0.30058300    -0.71100
O737        O  0.56711777  0.56887873  0.35719600    -0.71600
O738        O  0.58315710  0.97907750  0.35715497    -0.71500
O739        O  0.62325265  0.97345491  0.30053606    -0.71300
C740        C  0.64530757  0.57925897  0.19792159     0.80500
C741        C  0.96700456  0.53076968  0.19792346     0.81000
C742        C  0.51519759  0.90086953  0.19793426     0.80000
C743        C  0.93726938  0.93133132  0.34264466     0.80300
C744        C  0.57546314  0.60880160  0.34265637     0.81500
C745        C  0.61472334  0.97074703  0.34259864     0.80500
N746        N  0.68829724  0.60371213  0.12481814    -0.00100
C747        C  0.73394702  0.63281217  0.11287664     0.02500
C748        C  0.76084888  0.65626665  0.15012118    -0.20400
C749        C  0.73046912  0.64097529  0.18637441    -0.20600
C750        C  0.68630938  0.60888881  0.16967398     0.02400
H751        H  0.79875891  0.68038085  0.15110631     0.16200
H752        H  0.73991248  0.65064906  0.22120634     0.16200
N753        N  0.94249865  0.54918452  0.12482178    -0.00100
C754        C  0.91340219  0.56567182  0.11289330     0.02500
C755        C  0.89003756  0.56917136  0.15016111    -0.20400
C756        C  0.90537749  0.55418196  0.18641596    -0.20600
C757        C  0.93740409  0.54211510  0.16969396     0.02400
H758        H  0.86594745  0.58293725  0.15115556     0.16200
H759        H  0.89576572  0.55400094  0.22125794     0.16200
C760        C  0.89014337  0.63730457  0.02062879     0.83600
N761        N  0.84331160  0.62346263  0.02037138    -0.74700
C762        C  0.82887022  0.65594333  0.02058955     0.86000
N763        N  0.86192311  0.70278306  0.02025602    -0.74600
C764        C  0.90889624  0.71729023  0.02055076     0.86100
N765        N  0.92267547  0.68428984  0.02032766    -0.76400
N766        N  0.49679015  0.85789053  0.12483315    -0.00100
C767        C  0.48039548  0.81228940  0.11289258     0.02500
C768        C  0.97687726  0.78541782  0.15016270    -0.20400
C769        C  0.49177820  0.81576790  0.18643098    -0.20600
C770        C  0.50380322  0.85987690  0.16971332     0.02400
H771        H  0.96317720  0.74754167  0.15114441     0.16200
H772        H  0.49195941  0.80634028  0.22127223     0.16200
C773        C  0.94033745  0.76215904  0.04112470    -0.09900
C774        C  0.96226854  0.79147991  0.06952919    -0.11500
C775        C  0.91085253  0.58390767  0.06955890    -0.09900
C776        C  0.90354046  0.60589044  0.04119045    -0.11500
C777        C  0.78403185  0.64254193  0.04117468    -0.09900
C778        C  0.75474369  0.63528643  0.06955731    -0.11500
C779        C  0.80102048  0.86300505  0.29190100    -0.09900
C780        C  0.83105563  0.87043357  0.31953605    -0.11500
C781        C  0.68312834  0.90301423  0.29185576    -0.09900
C782        C  0.67565306  0.92559440  0.31946480    -0.11500
C783        C  0.64297669  0.74500754  0.29184845    -0.09900
C784        C  0.62045856  0.71494524  0.31951263    -0.11500
N785        N  0.58667514  0.64722666  0.87410142    -0.00100
C786        C  0.60233944  0.69311647  0.86262637     0.02500
C787        C  0.60769218  0.72032195  0.89996597    -0.20400
C788        C  0.59539795  0.69078687  0.93634659    -0.20600
C789        C  0.58291722  0.64621295  0.92024949     0.02400
H790        H  0.62135711  0.75820135  0.90084018     0.16200
H791        H  0.59687128  0.70114507  0.97113672     0.16200
N792        N  0.64192212  0.95953856  0.87402883    -0.00100
C793        C  0.67208121  0.94383495  0.86254695     0.02500
C794        C  0.69397437  0.93854437  0.89987567    -0.20400
C795        C  0.67681835  0.95090498  0.93625537    -0.20600
C796        C  0.64473211  0.96336206  0.92017083     0.02400
H797        H  0.71814307  0.92486136  0.90074876     0.16200
H798        H  0.68573559  0.94947076  0.97104059     0.16200
C799        C  0.69581314  0.87061601  0.77221824     0.83600
N800        N  0.66255360  0.82383730  0.77204938    -0.74700
C801        C  0.67540155  0.79012784  0.77216668     0.86000
N802        N  0.72216648  0.80369948  0.77201573    -0.74600
C803        C  0.75592776  0.85031731  0.77221472     0.86100
N804        N  0.74242211  0.88352643  0.77210642    -0.76400
N805        N  0.89880925  0.90411286  0.87408666    -0.00100
C806        C  0.85287249  0.87396316  0.86261007     0.02500
C807        C  0.82563947  0.85204703  0.89993865    -0.20400
C808        C  0.85520513  0.86918273  0.93631397    -0.20600
C809        C  0.89982474  0.90127991  0.92022629     0.02400
H810        H  0.78772845  0.82788213  0.90081699     0.16200
H811        H  0.84483545  0.86025206  0.97109941     0.16200
Zn812      Zn  0.54251101  0.50360696  0.96197769     1.49700
Zn813      Zn  0.56301298  0.56860835  0.54643581     1.49400
Zn814      Zn  0.97747508  0.95898391  0.54643732     1.49100
Zn815      Zn  0.58706622  0.98318545  0.54638988     1.49500
O816        O  0.54251365  0.50359478  0.52650887    -1.80700
O817        O  0.55518208  0.56478745  0.93668711    -0.71400
O818        O  0.51142366  0.56964581  0.58390899    -0.71200
O819        O  0.93197328  0.92794681  0.99377441    -0.70700
O820        O  0.57754302  0.61410502  0.99378230    -0.71400
O821        O  0.98128946  0.95503512  0.93667193    -0.71000
O822        O  0.95338737  0.99411052  0.58443463    -0.71600
O823        O  0.55189495  0.92391522  0.58439320    -0.71000
O824        O  0.62226449  0.59272998  0.58445573    -0.71700
O825        O  0.97638909  0.90635250  0.58393966    -0.71100
O826        O  0.63977053  0.53479657  0.58386759    -0.71600
O827        O  0.61803852  0.96873813  0.99371707    -0.71500
O828        O  0.59104195  0.99102041  0.93664076    -0.71300
C829        C  0.57106880  0.60619183  0.95167087     0.80500
C830        C  0.97022747  0.53729675  0.59600866     0.81000
C831        C  0.93987607  0.92944187  0.95165670     0.80000
C832        C  0.50870933  0.89753031  0.59601161     0.80300
C833        C  0.64862964  0.57595030  0.59600659     0.81500
C834        C  0.61657884  0.97519147  0.95160735     0.80500
Zn835      Zn  0.58960212  0.98641572  0.74863121     1.49700
Zn836      Zn  0.55981735  0.56802393  0.74866111     1.49400
Zn837      Zn  0.97808371  0.95646512  0.74865770     1.49100
Zn838      Zn  0.54250948  0.50362852  0.83274659     1.49500
O839        O  0.54250291  0.50363442  0.76868916    -1.80700
O840        O  0.63844242  0.53883806  0.71006243    -0.71400
O841        O  0.50743430  0.56439332  0.71009109    -0.70600
O842        O  0.98160613  0.90764295  0.71011200    -0.70700
O843        O  0.61846850  0.59507422  0.71027205    -0.71400
O844        O  0.55791706  0.92778868  0.71023613    -0.71000
O845        O  0.95114317  0.98806609  0.71024662    -0.71600
O846        O  0.97723570  0.96291811  0.85718671    -0.71000
O847        O  0.57277325  0.61463386  0.80059525    -0.71700
O848        O  0.93141974  0.92280343  0.80058317    -0.71100
O849        O  0.56711765  0.56887866  0.85719596    -0.71600
O850        O  0.58315707  0.97907746  0.85715495    -0.71500
O851        O  0.62325259  0.97345486  0.80053600    -0.71300
C852        C  0.64530754  0.57925886  0.69792146     0.80500
C853        C  0.96700454  0.53076974  0.69792353     0.81000
C854        C  0.51519748  0.90086949  0.69793423     0.80000
C855        C  0.93726940  0.93133138  0.84264484     0.80300
C856        C  0.57546306  0.60880155  0.84265638     0.81500
C857        C  0.61472334  0.97074703  0.84259860     0.80500
N858        N  0.68829729  0.60371212  0.62481803    -0.00100
C859        C  0.73394707  0.63281218  0.61287655     0.02500
C860        C  0.76084890  0.65626674  0.65012111    -0.20400
C861        C  0.73046908  0.64097525  0.68637431    -0.20600
C862        C  0.68630938  0.60888876  0.66967386     0.02400
H863        H  0.79875884  0.68038097  0.65110629     0.16200
H864        H  0.73991238  0.65064888  0.72120629     0.16200
N865        N  0.94249856  0.54918446  0.62482184    -0.00100
C866        C  0.91340217  0.56567184  0.61289332     0.02500
C867        C  0.89003750  0.56917133  0.65016112    -0.20400
C868        C  0.90537749  0.55418207  0.68641604    -0.20600
C869        C  0.93740404  0.54211513  0.66969404     0.02400
H870        H  0.86594734  0.58293713  0.65115549     0.16200
H871        H  0.89576575  0.55400116  0.72125799     0.16200
C872        C  0.89014345  0.63730461  0.52062876     0.83600
N873        N  0.84331168  0.62346268  0.52037129    -0.74700
C874        C  0.82887036  0.65594342  0.52058964     0.86000
N875        N  0.86192324  0.70278313  0.52025618    -0.74600
C876        C  0.90889633  0.71729026  0.52055078     0.86100
N877        N  0.92267556  0.68428988  0.52032780    -0.76400
N878        N  0.49679006  0.85789052  0.62483307    -0.00100
C879        C  0.48039541  0.81228938  0.61289256     0.02500
C880        C  0.97687720  0.78541779  0.65016269    -0.20400
C881        C  0.49177816  0.81576791  0.68643088    -0.20600
C882        C  0.50380311  0.85987687  0.66971327     0.02400
H883        H  0.96317720  0.74754165  0.65114437     0.16200
H884        H  0.49195949  0.80634031  0.72127229     0.16200
C885        C  0.94033742  0.76215899  0.54112477    -0.09900
C886        C  0.96226846  0.79147988  0.56952921    -0.11500
C887        C  0.91085256  0.58390775  0.56955891    -0.09900
C888        C  0.90354045  0.60589043  0.54119041    -0.11500
C889        C  0.78403199  0.64254207  0.54117467    -0.09900
C890        C  0.75474378  0.63528660  0.56955722    -0.11500
C891        C  0.80102053  0.86300501  0.79190093    -0.09900
C892        C  0.83105560  0.87043367  0.81953613    -0.11500
C893        C  0.68312830  0.90301415  0.79185568    -0.09900
C894        C  0.67565314  0.92559438  0.81946477    -0.11500
C895        C  0.64297662  0.74500741  0.79184845    -0.09900
C896        C  0.62045850  0.71494516  0.81951263    -0.11500
loop_ 
_geom_bond_atom_site_label_1 
_geom_bond_atom_site_label_2 
_geom_bond_distance 
_geom_bond_site_symmetry_2 
_ccdc_geom_bond_type 
N1            C5   1.378       .  A
N1            C2   1.360       .  A
N1           C72   1.456       .  S
C2            C3   1.377       .  A
C2          C112   1.442       .  S
C3            C4   1.368       .  A
C3            H6   1.083       .  S
C4            C5   1.383       .  A
C4            H7   1.082       .  S
C5           C45   1.490       .  S
N8           C12   1.378       .  A
N8            C9   1.360       .  A
N8           C73   1.456       .  S
C9           C10   1.377       .  A
C9          C110   1.442       .  S
C10          C11   1.368       .  A
C10          H13   1.083       .  S
C11          C12   1.383       .  A
C11          H14   1.082       .  S
C12          C50   1.490       .  S
C15          N16   1.358       .  A
C15          N20   1.358       .  A
C15         C109   1.437       .  S
N16          C17   1.358       .  A
C17          N18   1.358       .  A
C17         C111   1.437       .  S
N18          C19   1.358       .  A
C19          N20   1.358       .  A
C19         C107   1.437       .  S
N21          C25   1.378       .  A
N21          C22   1.360       .  A
N21          C71   1.456       .  S
C22          C23   1.377       .  A
C22         C108   1.442       .  S
C23          C24   1.368       .  A
C23          H26   1.083       .  S
C24          C25   1.383       .  A
C24          H27   1.082       .  S
C25          C47   1.490       .  S
Zn28         O33   1.972       .  S
Zn28        O709   1.972   1_445  S
Zn28        O268   1.972   1_545  S
Zn28        O144   1.920       .  S
Zn29         O34   2.032       .  S
Zn29         O40   2.026       .  S
Zn29        O148   2.043   1_554  S
Zn29         O32   1.967       .  S
Zn30         O38   2.026       .  S
Zn30         O41   2.032       .  S
Zn30        O147   2.043   1_554  S
Zn30        O704   1.967       .  S
Zn31         O39   2.026       .  S
Zn31        O266   2.032       .  S
Zn31        O155   2.043   1_554  S
Zn31        O256   1.967       .  S
O32        Zn140   1.920   1_554  S
O32        Zn702   1.967   1_445  S
O32        Zn255   1.967   1_545  S
O33          C45   1.260       .  A
O34         C494   1.275   1_455  A
O35        Zn142   2.043       .  S
O35          C47   1.275       .  A
O36        Zn141   2.043       .  S
O36          C45   1.275       .  A
O37        Zn700   1.972       .  S
O37          C47   1.260       .  A
O38         C270   1.276       .  A
O39          C48   1.275       .  A
O40          C49   1.276       .  A
O41         C496   1.275       .  A
O42        Zn255   2.032   1_545  S
O42          C49   1.275       .  A
O43        Zn143   2.043       .  S
O43          C50   1.275       .  A
O44        Zn252   1.972       .  S
O44          C50   1.260       .  A
C46          N81   1.433       .  S
C46         O482   1.275       .  A
C46         O262   1.276   1_545  A
C48          N94   1.433   1_455  S
C48         O489   1.275   1_455  A
C49          N74   1.433       .  S
Zn51         O60   2.011       .  S
Zn51         O67   2.057       .  S
Zn51        O280   2.011       .  S
Zn51        O279   1.973       .  S
Zn52         O57   2.011       .  S
Zn52         O59   2.012       .  S
Zn52         O63   2.057       .  S
Zn52         O55   1.973       .  S
Zn53         O58   2.011       .  S
Zn53         O61   2.011       .  S
Zn53         O64   2.057       .  S
Zn53        O727   1.973       .  S
Zn54         O65   1.997       .  S
Zn54        O734   1.996   1_445  S
Zn54        O290   1.997   1_545  S
Zn54         O55   1.906       .  S
O55        Zn275   1.973   1_545  S
O55        Zn725   1.973   1_445  S
O56        Zn275   2.011   1_545  S
O56          C68   1.273       .  A
O57         C517   1.273   1_455  A
O58         C518   1.273       .  A
O59          C68   1.272       .  A
O60          C70   1.272       .  A
O61         C293   1.272       .  A
O62        Zn726   1.996       .  S
O62          C71   1.265       .  A
O63          C72   1.276       .  A
O64          C71   1.276       .  A
O65          C72   1.265       .  A
O66        Zn278   1.997       .  S
O66          C73   1.265       .  A
O67          C73   1.276       .  A
C68          C78   1.460       .  S
C69          C85   1.460       .  S
C69         O505   1.273       .  A
C69         O285   1.272   1_545  A
C70          C98   1.460       .  S
C70         O506   1.273   1_455  A
N74          C78   1.351       .  A
N74          C75   1.351       .  A
C75          C76   1.382       .  A
C75         C106   1.440       .  S
C76          C77   1.378       .  A
C76          H79   1.083       .  S
C77          C78   1.380       .  A
C77          H80   1.082       .  S
N81          C85   1.351       .  A
N81          C82   1.351       .  A
C82          C83   1.382       .  A
C82         C103   1.440       .  S
C83          C84   1.378       .  A
C83          H86   1.083       .  S
C84          C85   1.380       .  A
C84          H87   1.082       .  S
C88          N89   1.358       .  A
C88          N93   1.357       .  A
C88         C104   1.436       .  S
N89          C90   1.357       .  A
C90          N91   1.358       .  A
C90         C105   1.436       .  S
N91          C92   1.357       .  A
C92          N93   1.358       .  A
C92         C101   1.436       .  S
N94          C98   1.351   1_655  A
N94          C95   1.351       .  A
C95         C544   1.382       .  A
C95         C550   1.440       .  S
C96         C543   1.382       .  A
C96         C545   1.378       .  A
C96          H99   1.083       .  S
C97          C98   1.380   1_655  A
C97         C544   1.378       .  A
C97         H100   1.082       .  S
C101        C102   1.206       .  T
C102        C543   1.440       .  S
C103        C104   1.206       .  T
C105        C106   1.206       .  T
C107        C108   1.207       .  T
C109        C110   1.207       .  T
C111        C112   1.206       .  T
N113        C117   1.378       .  A
N113        C114   1.360       .  A
N113        C184   1.456       .  S
C114        C115   1.377       .  A
C114        C224   1.442       .  S
C115        C116   1.368       .  A
C115        H118   1.083       .  S
C116        C117   1.383       .  A
C116        H119   1.082       .  S
C117        C157   1.490       .  S
N120        C124   1.378       .  A
N120        C121   1.360       .  A
N120        C185   1.456       .  S
C121        C122   1.377       .  A
C121        C222   1.442       .  S
C122        C123   1.368       .  A
C122        H125   1.083       .  S
C123        C124   1.383       .  A
C123        H126   1.082       .  S
C124        C162   1.490       .  S
C127        N128   1.358       .  A
C127        N132   1.358       .  A
C127        C221   1.437       .  S
N128        C129   1.358       .  A
C129        N130   1.358       .  A
C129        C223   1.437       .  S
N130        C131   1.358       .  A
C131        N132   1.358       .  A
C131        C219   1.437       .  S
N133        C137   1.378       .  A
N133        C134   1.360       .  A
N133        C183   1.456       .  S
C134        C135   1.377       .  A
C134        C220   1.442       .  S
C135        C136   1.368       .  A
C135        H138   1.083       .  S
C136        C137   1.383       .  A
C136        H139   1.082       .  S
C137        C159   1.490       .  S
Zn140       O145   1.972       .  S
Zn140       O821   1.972   1_445  S
Zn140       O380   1.972   1_545  S
Zn141       O146   2.032       .  S
Zn141       O152   2.026       .  S
Zn141       O144   1.967       .  S
Zn142       O150   2.026       .  S
Zn142       O153   2.032       .  S
Zn142       O816   1.967       .  S
Zn143       O151   2.026       .  S
Zn143       O378   2.032       .  S
Zn143       O368   1.967       .  S
O144       Zn814   1.967   1_445  S
O144       Zn367   1.967   1_545  S
O145        C157   1.260       .  A
O146        C606   1.275   1_455  A
O147        C159   1.275       .  A
O148        C157   1.275       .  A
O149       Zn812   1.972       .  S
O149        C159   1.260       .  A
O150        C382   1.276       .  A
O151        C160   1.275       .  A
O152        C161   1.276       .  A
O153        C608   1.275       .  A
O154       Zn367   2.032   1_545  S
O154        C161   1.275       .  A
O155        C162   1.275       .  A
O156       Zn364   1.972       .  S
O156        C162   1.260       .  A
C158        N193   1.433       .  S
C158        O594   1.275       .  A
C158        O374   1.276   1_545  A
C160        N206   1.433   1_455  S
C160        O601   1.275   1_455  A
C161        N186   1.433       .  S
Zn163       O392   2.011       .  S
Zn163       O172   2.011       .  S
Zn163       O179   2.057       .  S
Zn163       O391   1.973       .  S
Zn164       O169   2.011       .  S
Zn164       O171   2.012       .  S
Zn164       O175   2.057       .  S
Zn164       O167   1.973       .  S
Zn165       O170   2.011       .  S
Zn165       O173   2.011       .  S
Zn165       O176   2.057       .  S
Zn165       O839   1.973       .  S
Zn166       O846   1.996   1_445  S
Zn166       O177   1.997       .  S
Zn166       O402   1.997   1_545  S
Zn166       O167   1.906       .  S
O167       Zn387   1.973   1_545  S
O167       Zn837   1.973   1_445  S
O168       Zn387   2.011   1_545  S
O168        C180   1.273       .  A
O169        C629   1.273   1_455  A
O170        C630   1.273       .  A
O171        C180   1.272       .  A
O172        C182   1.272       .  A
O173        C405   1.272       .  A
O174       Zn838   1.996       .  S
O174        C183   1.265       .  A
O175        C184   1.276       .  A
O176        C183   1.276       .  A
O177        C184   1.265       .  A
O178       Zn390   1.997       .  S
O178        C185   1.265       .  A
O179        C185   1.276       .  A
C180        C190   1.460       .  S
C181        C197   1.460       .  S
C181        O617   1.273       .  A
C181        O397   1.272   1_545  A
C182        C210   1.460       .  S
C182        O618   1.273   1_455  A
N186        C190   1.351       .  A
N186        C187   1.351       .  A
C187        C188   1.382       .  A
C187        C218   1.440       .  S
C188        C189   1.378       .  A
C188        H191   1.083       .  S
C189        C190   1.380       .  A
C189        H192   1.082       .  S
N193        C197   1.351       .  A
N193        C194   1.351       .  A
C194        C195   1.382       .  A
C194        C215   1.440       .  S
C195        C196   1.378       .  A
C195        H198   1.083       .  S
C196        C197   1.380       .  A
C196        H199   1.082       .  S
C200        N201   1.358       .  A
C200        N205   1.357       .  A
C200        C216   1.436       .  S
N201        C202   1.357       .  A
C202        N203   1.358       .  A
C202        C217   1.436       .  S
N203        C204   1.357       .  A
C204        N205   1.358       .  A
C204        C213   1.436       .  S
N206        C210   1.351   1_655  A
N206        C207   1.351       .  A
C207        C656   1.382       .  A
C207        C662   1.440       .  S
C208        C655   1.382       .  A
C208        C657   1.378       .  A
C208        H211   1.083       .  S
C209        C656   1.378       .  A
C209        C210   1.380   1_655  A
C209        H212   1.082       .  S
C213        C214   1.206       .  T
C214        C655   1.440       .  S
C215        C216   1.206       .  T
C217        C218   1.206       .  T
C219        C220   1.207       .  T
C221        C222   1.207       .  T
C223        C224   1.206       .  T
N225        C229   1.378       .  A
N225        C226   1.360       .  A
N225        C296   1.456       .  S
C226        C227   1.377       .  A
C226        C336   1.442       .  S
C227        C228   1.368       .  A
C227        H230   1.083       .  S
C228        C229   1.383       .  A
C228        H231   1.082       .  S
C229        C269   1.490       .  S
N232        C236   1.378       .  A
N232        C233   1.360       .  A
N232        C297   1.456       .  S
C233        C234   1.377       .  A
C233        C334   1.442       .  S
C234        C235   1.368       .  A
C234        H237   1.083       .  S
C235        C236   1.383       .  A
C235        H238   1.082       .  S
C236        C274   1.490       .  S
C239        N240   1.358       .  A
C239        N244   1.358       .  A
C239        C333   1.437       .  S
N240        C241   1.358       .  A
C241        N242   1.358       .  A
C241        C335   1.437       .  S
N242        C243   1.358       .  A
C243        N244   1.358       .  A
C243        C331   1.437       .  S
N245        C249   1.378       .  A
N245        C246   1.360       .  A
N245        C295   1.456       .  S
C246        C247   1.377       .  A
C246        C332   1.442       .  S
C247        C248   1.368       .  A
C247        H250   1.083       .  S
C248        C249   1.383       .  A
C248        H251   1.082       .  S
C249        C271   1.490       .  S
Zn252       O257   1.972       .  S
Zn252       O485   1.972   1_455  S
Zn252       O368   1.920       .  S
Zn253       O258   2.032       .  S
Zn253       O372   2.043   1_554  S
Zn253       O264   2.026       .  S
Zn253       O256   1.967       .  S
Zn254       O371   2.043   1_554  S
Zn254       O262   2.026       .  S
Zn254       O265   2.032       .  S
Zn254       O480   1.967   1_565  S
Zn255       O263   2.026       .  S
Zn255       O379   2.043   1_554  S
O256       Zn364   1.920   1_554  S
O256       Zn478   1.967   1_455  S
O257        C269   1.260       .  A
O258        C718   1.275   1_455  A
O259       Zn366   2.043       .  S
O259        C271   1.275       .  A
O260       Zn365   2.043       .  S
O260        C269   1.275       .  A
O261       Zn476   1.972   1_565  S
O261        C271   1.260       .  A
O263        C272   1.275       .  A
O264        C273   1.276       .  A
O265        C720   1.275       .  A
O266        C273   1.275       .  A
O267       Zn367   2.043       .  S
O267        C274   1.275       .  A
O268        C274   1.260       .  A
C270        N305   1.433       .  S
C270        O706   1.275       .  A
C272        N318   1.433   1_455  S
C272        O713   1.275   1_455  A
C273        N298   1.433       .  S
Zn275       O284   2.011       .  S
Zn275       O291   2.057       .  S
Zn276       O281   2.011       .  S
Zn276       O283   2.012       .  S
Zn276       O287   2.057       .  S
Zn276       O279   1.973       .  S
Zn277       O282   2.011       .  S
Zn277       O285   2.011       .  S
Zn277       O288   2.057       .  S
Zn277       O503   1.973   1_565  S
Zn278       O510   1.996   1_455  S
Zn278       O289   1.997       .  S
Zn278       O279   1.906       .  S
O279       Zn501   1.973   1_455  S
O280        C292   1.273       .  A
O281        C741   1.273   1_455  A
O282        C742   1.273       .  A
O283        C292   1.272       .  A
O284        C294   1.272       .  A
O286       Zn502   1.996   1_565  S
O286        C295   1.265       .  A
O287        C296   1.276       .  A
O288        C295   1.276       .  A
O289        C296   1.265       .  A
O290        C297   1.265       .  A
O291        C297   1.276       .  A
C292        C302   1.460       .  S
C293        C309   1.460       .  S
C293        O729   1.273       .  A
C294        C322   1.460       .  S
C294        O730   1.273   1_455  A
N298        C302   1.351       .  A
N298        C299   1.351       .  A
C299        C300   1.382       .  A
C299        C330   1.440       .  S
C300        C301   1.378       .  A
C300        H303   1.083       .  S
C301        C302   1.380       .  A
C301        H304   1.082       .  S
N305        C309   1.351       .  A
N305        C306   1.351       .  A
C306        C307   1.382       .  A
C306        C327   1.440       .  S
C307        C308   1.378       .  A
C307        H310   1.083       .  S
C308        C309   1.380       .  A
C308        H311   1.082       .  S
C312        N313   1.358       .  A
C312        N317   1.357       .  A
C312        C328   1.436       .  S
N313        C314   1.357       .  A
C314        N315   1.358       .  A
C314        C329   1.436       .  S
N315        C316   1.357       .  A
C316        N317   1.358       .  A
C316        C325   1.436       .  S
N318        C322   1.351   1_655  A
N318        C319   1.351       .  A
C319        C768   1.382       .  A
C319        C774   1.440       .  S
C320        C767   1.382       .  A
C320        C769   1.378       .  A
C320        H323   1.083       .  S
C321        C768   1.378       .  A
C321        C322   1.380   1_655  A
C321        H324   1.082       .  S
C325        C326   1.206       .  T
C326        C767   1.440       .  S
C327        C328   1.206       .  T
C329        C330   1.206       .  T
C331        C332   1.207       .  T
C333        C334   1.207       .  T
C335        C336   1.206       .  T
N337        C341   1.378       .  A
N337        C338   1.360       .  A
N337        C408   1.456       .  S
C338        C339   1.377       .  A
C338        C448   1.442       .  S
C339        C340   1.368       .  A
C339        H342   1.083       .  S
C340        C341   1.383       .  A
C340        H343   1.082       .  S
C341        C381   1.490       .  S
N344        C348   1.378       .  A
N344        C345   1.360       .  A
N344        C409   1.456       .  S
C345        C346   1.377       .  A
C345        C446   1.442       .  S
C346        C347   1.368       .  A
C346        H349   1.083       .  S
C347        C348   1.383       .  A
C347        H350   1.082       .  S
C348        C386   1.490       .  S
C351        N352   1.358       .  A
C351        N356   1.358       .  A
C351        C445   1.437       .  S
N352        C353   1.358       .  A
C353        N354   1.358       .  A
C353        C447   1.437       .  S
N354        C355   1.358       .  A
C355        N356   1.358       .  A
C355        C443   1.437       .  S
N357        C361   1.378       .  A
N357        C358   1.360       .  A
N357        C407   1.456       .  S
C358        C359   1.377       .  A
C358        C444   1.442       .  S
C359        C360   1.368       .  A
C359        H362   1.083       .  S
C360        C361   1.383       .  A
C360        H363   1.082       .  S
C361        C383   1.490       .  S
Zn364       O369   1.972       .  S
Zn364       O597   1.972   1_455  S
Zn365       O370   2.032       .  S
Zn365       O376   2.026       .  S
Zn365       O368   1.967       .  S
Zn366       O374   2.026       .  S
Zn366       O377   2.032       .  S
Zn366       O592   1.967   1_565  S
Zn367       O375   2.026       .  S
O368       Zn590   1.967   1_455  S
O369        C381   1.260       .  A
O370        C830   1.275   1_455  A
O371        C383   1.275       .  A
O372        C381   1.275       .  A
O373       Zn588   1.972   1_565  S
O373        C383   1.260       .  A
O375        C384   1.275       .  A
O376        C385   1.276       .  A
O377        C832   1.275       .  A
O378        C385   1.275       .  A
O379        C386   1.275       .  A
O380        C386   1.260       .  A
C382        N417   1.433       .  S
C382        O818   1.275       .  A
C384        N430   1.433   1_455  S
C384        O825   1.275   1_455  A
C385        N410   1.433       .  S
Zn387       O396   2.011       .  S
Zn387       O403   2.057       .  S
Zn388       O393   2.011       .  S
Zn388       O395   2.012       .  S
Zn388       O399   2.057       .  S
Zn388       O391   1.973       .  S
Zn389       O394   2.011       .  S
Zn389       O397   2.011       .  S
Zn389       O400   2.057       .  S
Zn389       O615   1.973   1_565  S
Zn390       O622   1.996   1_455  S
Zn390       O401   1.997       .  S
Zn390       O391   1.906       .  S
O391       Zn613   1.973   1_455  S
O392        C404   1.273       .  A
O393        C853   1.273   1_455  A
O394        C854   1.273       .  A
O395        C404   1.272       .  A
O396        C406   1.272       .  A
O398       Zn614   1.996   1_565  S
O398        C407   1.265       .  A
O399        C408   1.276       .  A
O400        C407   1.276       .  A
O401        C408   1.265       .  A
O402        C409   1.265       .  A
O403        C409   1.276       .  A
C404        C414   1.460       .  S
C405        C421   1.460       .  S
C405        O841   1.273       .  A
C406        C434   1.460       .  S
C406        O842   1.273   1_455  A
N410        C414   1.351       .  A
N410        C411   1.351       .  A
C411        C412   1.382       .  A
C411        C442   1.440       .  S
C412        C413   1.378       .  A
C412        H415   1.083       .  S
C413        C414   1.380       .  A
C413        H416   1.082       .  S
N417        C421   1.351       .  A
N417        C418   1.351       .  A
C418        C419   1.382       .  A
C418        C439   1.440       .  S
C419        C420   1.378       .  A
C419        H422   1.083       .  S
C420        C421   1.380       .  A
C420        H423   1.082       .  S
C424        N425   1.358       .  A
C424        N429   1.357       .  A
C424        C440   1.436       .  S
N425        C426   1.357       .  A
C426        N427   1.358       .  A
C426        C441   1.436       .  S
N427        C428   1.357       .  A
C428        N429   1.358       .  A
C428        C437   1.436       .  S
N430        C434   1.351   1_655  A
N430        C431   1.351       .  A
C431        C880   1.382       .  A
C431        C886   1.440       .  S
C432        C879   1.382       .  A
C432        C881   1.378       .  A
C432        H435   1.083       .  S
C433        C880   1.378       .  A
C433        C434   1.380   1_655  A
C433        H436   1.082       .  S
C437        C438   1.206       .  T
C438        C879   1.440       .  S
C439        C440   1.206       .  T
C441        C442   1.206       .  T
C443        C444   1.207       .  T
C445        C446   1.207       .  T
C447        C448   1.206       .  T
N449        C453   1.378       .  A
N449        C450   1.360       .  A
N449        C520   1.456       .  S
C450        C451   1.377       .  A
C450        C560   1.442       .  S
C451        C452   1.368       .  A
C451        H454   1.083       .  S
C452        C453   1.383       .  A
C452        H455   1.082       .  S
C453        C493   1.490       .  S
N456        C460   1.378       .  A
N456        C457   1.360       .  A
N456        C521   1.456       .  S
C457        C458   1.377       .  A
C457        C558   1.442       .  S
C458        C459   1.368       .  A
C458        H461   1.083       .  S
C459        C460   1.383       .  A
C459        H462   1.082       .  S
C460        C498   1.490       .  S
C463        N464   1.358       .  A
C463        N468   1.358       .  A
C463        C557   1.437       .  S
N464        C465   1.358       .  A
C465        N466   1.358       .  A
C465        C559   1.437       .  S
N466        C467   1.358       .  A
C467        N468   1.358       .  A
C467        C555   1.437       .  S
N469        C473   1.378       .  A
N469        C470   1.360       .  A
N469        C519   1.456       .  S
C470        C471   1.377       .  A
C470        C556   1.442       .  S
C471        C472   1.368       .  A
C471        H474   1.083       .  S
C472        C473   1.383       .  A
C472        H475   1.082       .  S
C473        C495   1.490       .  S
Zn476       O481   1.972       .  S
Zn476       O716   1.972   1_545  S
Zn476       O592   1.920       .  S
Zn477       O482   2.032       .  S
Zn477       O596   2.043   1_554  S
Zn477       O488   2.026       .  S
Zn477       O480   1.967       .  S
Zn478       O595   2.043   1_554  S
Zn478       O486   2.026       .  S
Zn478       O489   2.032       .  S
Zn479       O487   2.026       .  S
Zn479       O714   2.032       .  S
Zn479       O603   2.043   1_554  S
Zn479       O704   1.967       .  S
O480       Zn588   1.920   1_554  S
O480       Zn703   1.967   1_545  S
O481        C493   1.260       .  A
O483       Zn590   2.043       .  S
O483        C495   1.275       .  A
O484       Zn589   2.043       .  S
O484        C493   1.275       .  A
O485        C495   1.260       .  A
O486        C718   1.276       .  A
O487        C496   1.275       .  A
O488        C497   1.276       .  A
O490       Zn703   2.032   1_545  S
O490        C497   1.275       .  A
O491       Zn591   2.043       .  S
O491        C498   1.275       .  A
O492       Zn700   1.972       .  S
O492        C498   1.260       .  A
C494        N529   1.433       .  S
C494        O710   1.276   1_545  A
C496        N542   1.433       .  S
C497        N522   1.433       .  S
Zn499       O728   2.011       .  S
Zn499       O508   2.011       .  S
Zn499       O515   2.057       .  S
Zn499       O727   1.973       .  S
Zn500       O505   2.011       .  S
Zn500       O507   2.012       .  S
Zn500       O511   2.057       .  S
Zn500       O503   1.973       .  S
Zn501       O506   2.011       .  S
Zn501       O509   2.011       .  S
Zn501       O512   2.057       .  S
Zn502       O513   1.997       .  S
Zn502       O738   1.997   1_545  S
Zn502       O503   1.906       .  S
O503       Zn723   1.973   1_545  S
O504       Zn723   2.011   1_545  S
O504        C516   1.273       .  A
O507        C516   1.272       .  A
O508        C518   1.272       .  A
O509        C741   1.272       .  A
O510        C519   1.265       .  A
O511        C520   1.276       .  A
O512        C519   1.276       .  A
O513        C520   1.265       .  A
O514       Zn726   1.997       .  S
O514        C521   1.265       .  A
O515        C521   1.276       .  A
C516        C526   1.460       .  S
C517        C533   1.460       .  S
C517        O733   1.272   1_545  A
C518        C546   1.460       .  S
N522        C526   1.351       .  A
N522        C523   1.351       .  A
C523        C524   1.382       .  A
C523        C554   1.440       .  S
C524        C525   1.378       .  A
C524        H527   1.083       .  S
C525        C526   1.380       .  A
C525        H528   1.082       .  S
N529        C533   1.351       .  A
N529        C530   1.351       .  A
C530        C531   1.382       .  A
C530        C551   1.440       .  S
C531        C532   1.378       .  A
C531        H534   1.083       .  S
C532        C533   1.380       .  A
C532        H535   1.082       .  S
C536        N537   1.358       .  A
C536        N541   1.357       .  A
C536        C552   1.436       .  S
N537        C538   1.357       .  A
C538        N539   1.358       .  A
C538        C553   1.436       .  S
N539        C540   1.357       .  A
C540        N541   1.358       .  A
C540        C549   1.436       .  S
N542        C546   1.351       .  A
N542        C543   1.351       .  A
C544        H547   1.083       .  S
C545        C546   1.380       .  A
C545        H548   1.082       .  S
C549        C550   1.206       .  T
C551        C552   1.206       .  T
C553        C554   1.206       .  T
C555        C556   1.207       .  T
C557        C558   1.207       .  T
C559        C560   1.206       .  T
N561        C565   1.378       .  A
N561        C562   1.360       .  A
N561        C632   1.456       .  S
C562        C563   1.377       .  A
C562        C672   1.442       .  S
C563        C564   1.368       .  A
C563        H566   1.083       .  S
C564        C565   1.383       .  A
C564        H567   1.082       .  S
C565        C605   1.490       .  S
N568        C572   1.378       .  A
N568        C569   1.360       .  A
N568        C633   1.456       .  S
C569        C570   1.377       .  A
C569        C670   1.442       .  S
C570        C571   1.368       .  A
C570        H573   1.083       .  S
C571        C572   1.383       .  A
C571        H574   1.082       .  S
C572        C610   1.490       .  S
C575        N576   1.358       .  A
C575        N580   1.358       .  A
C575        C669   1.437       .  S
N576        C577   1.358       .  A
C577        N578   1.358       .  A
C577        C671   1.437       .  S
N578        C579   1.358       .  A
C579        N580   1.358       .  A
C579        C667   1.437       .  S
N581        C585   1.378       .  A
N581        C582   1.360       .  A
N581        C631   1.456       .  S
C582        C583   1.377       .  A
C582        C668   1.442       .  S
C583        C584   1.368       .  A
C583        H586   1.083       .  S
C584        C585   1.383       .  A
C584        H587   1.082       .  S
C585        C607   1.490       .  S
Zn588       O593   1.972       .  S
Zn588       O828   1.972   1_545  S
Zn589       O594   2.032       .  S
Zn589       O600   2.026       .  S
Zn589       O592   1.967       .  S
Zn590       O598   2.026       .  S
Zn590       O601   2.032       .  S
Zn591       O599   2.026       .  S
Zn591       O826   2.032       .  S
Zn591       O816   1.967       .  S
O592       Zn815   1.967   1_545  S
O593        C605   1.260       .  A
O595        C607   1.275       .  A
O596        C605   1.275       .  A
O597        C607   1.260       .  A
O598        C830   1.276       .  A
O599        C608   1.275       .  A
O600        C609   1.276       .  A
O602       Zn815   2.032   1_545  S
O602        C609   1.275       .  A
O603        C610   1.275       .  A
O604       Zn812   1.972       .  S
O604        C610   1.260       .  A
C606        N641   1.433       .  S
C606        O822   1.276   1_545  A
C608        N654   1.433       .  S
C609        N634   1.433       .  S
Zn611       O840   2.011       .  S
Zn611       O620   2.011       .  S
Zn611       O627   2.057       .  S
Zn611       O839   1.973       .  S
Zn612       O617   2.011       .  S
Zn612       O619   2.012       .  S
Zn612       O623   2.057       .  S
Zn612       O615   1.973       .  S
Zn613       O618   2.011       .  S
Zn613       O621   2.011       .  S
Zn613       O624   2.057       .  S
Zn614       O625   1.997       .  S
Zn614       O850   1.997   1_545  S
Zn614       O615   1.906       .  S
O615       Zn835   1.973   1_545  S
O616       Zn835   2.011   1_545  S
O616        C628   1.273       .  A
O619        C628   1.272       .  A
O620        C630   1.272       .  A
O621        C853   1.272       .  A
O622        C631   1.265       .  A
O623        C632   1.276       .  A
O624        C631   1.276       .  A
O625        C632   1.265       .  A
O626       Zn838   1.997       .  S
O626        C633   1.265       .  A
O627        C633   1.276       .  A
C628        C638   1.460       .  S
C629        C645   1.460       .  S
C629        O845   1.272   1_545  A
C630        C658   1.460       .  S
N634        C638   1.351       .  A
N634        C635   1.351       .  A
C635        C636   1.382       .  A
C635        C666   1.440       .  S
C636        C637   1.378       .  A
C636        H639   1.083       .  S
C637        C638   1.380       .  A
C637        H640   1.082       .  S
N641        C645   1.351       .  A
N641        C642   1.351       .  A
C642        C643   1.382       .  A
C642        C663   1.440       .  S
C643        C644   1.378       .  A
C643        H646   1.083       .  S
C644        C645   1.380       .  A
C644        H647   1.082       .  S
C648        N649   1.358       .  A
C648        N653   1.357       .  A
C648        C664   1.436       .  S
N649        C650   1.357       .  A
C650        N651   1.358       .  A
C650        C665   1.436       .  S
N651        C652   1.357       .  A
C652        N653   1.358       .  A
C652        C661   1.436       .  S
N654        C658   1.351       .  A
N654        C655   1.351       .  A
C656        H659   1.083       .  S
C657        C658   1.380       .  A
C657        H660   1.082       .  S
C661        C662   1.206       .  T
C663        C664   1.206       .  T
C665        C666   1.206       .  T
C667        C668   1.207       .  T
C669        C670   1.207       .  T
C671        C672   1.206       .  T
N673        C677   1.378       .  A
N673        C674   1.360       .  A
N673        C744   1.456       .  S
C674        C675   1.377       .  A
C674        C784   1.442       .  S
C675        C676   1.368       .  A
C675        H678   1.083       .  S
C676        C677   1.383       .  A
C676        H679   1.082       .  S
C677        C717   1.490       .  S
N680        C684   1.378       .  A
N680        C681   1.360       .  A
N680        C745   1.456       .  S
C681        C682   1.377       .  A
C681        C782   1.442       .  S
C682        C683   1.368       .  A
C682        H685   1.083       .  S
C683        C684   1.383       .  A
C683        H686   1.082       .  S
C684        C722   1.490       .  S
C687        N688   1.358       .  A
C687        N692   1.358       .  A
C687        C781   1.437       .  S
N688        C689   1.358       .  A
C689        N690   1.358       .  A
C689        C783   1.437       .  S
N690        C691   1.358       .  A
C691        N692   1.358       .  A
C691        C779   1.437       .  S
N693        C697   1.378       .  A
N693        C694   1.360       .  A
N693        C743   1.456       .  S
C694        C695   1.377       .  A
C694        C780   1.442       .  S
C695        C696   1.368       .  A
C695        H698   1.083       .  S
C696        C697   1.383       .  A
C696        H699   1.082       .  S
C697        C719   1.490       .  S
Zn700       O705   1.972       .  S
Zn700       O816   1.920       .  S
Zn701       O706   2.032       .  S
Zn701       O820   2.043   1_554  S
Zn701       O712   2.026       .  S
Zn701       O704   1.967       .  S
Zn702       O819   2.043   1_554  S
Zn702       O710   2.026       .  S
Zn702       O713   2.032       .  S
Zn703       O711   2.026       .  S
Zn703       O827   2.043   1_554  S
O704       Zn812   1.920   1_554  S
O705        C717   1.260       .  A
O707       Zn814   2.043       .  S
O707        C719   1.275       .  A
O708       Zn813   2.043       .  S
O708        C717   1.275       .  A
O709        C719   1.260       .  A
O711        C720   1.275       .  A
O712        C721   1.276       .  A
O714        C721   1.275       .  A
O715       Zn815   2.043       .  S
O715        C722   1.275       .  A
O716        C722   1.260       .  A
C718        N753   1.433       .  S
C720        N766   1.433       .  S
C721        N746   1.433       .  S
Zn723       O732   2.011       .  S
Zn723       O739   2.057       .  S
Zn724       O729   2.011       .  S
Zn724       O731   2.012       .  S
Zn724       O735   2.057       .  S
Zn724       O727   1.973       .  S
Zn725       O730   2.011       .  S
Zn725       O733   2.011       .  S
Zn725       O736   2.057       .  S
Zn726       O737   1.997       .  S
Zn726       O727   1.906       .  S
O728        C740   1.273       .  A
O731        C740   1.272       .  A
O732        C742   1.272       .  A
O734        C743   1.265       .  A
O735        C744   1.276       .  A
O736        C743   1.276       .  A
O737        C744   1.265       .  A
O738        C745   1.265       .  A
O739        C745   1.276       .  A
C740        C750   1.460       .  S
C741        C757   1.460       .  S
C742        C770   1.460       .  S
N746        C750   1.351       .  A
N746        C747   1.351       .  A
C747        C748   1.382       .  A
C747        C778   1.440       .  S
C748        C749   1.378       .  A
C748        H751   1.083       .  S
C749        C750   1.380       .  A
C749        H752   1.082       .  S
N753        C757   1.351       .  A
N753        C754   1.351       .  A
C754        C755   1.382       .  A
C754        C775   1.440       .  S
C755        C756   1.378       .  A
C755        H758   1.083       .  S
C756        C757   1.380       .  A
C756        H759   1.082       .  S
C760        N761   1.358       .  A
C760        N765   1.357       .  A
C760        C776   1.436       .  S
N761        C762   1.357       .  A
C762        N763   1.358       .  A
C762        C777   1.436       .  S
N763        C764   1.357       .  A
C764        N765   1.358       .  A
C764        C773   1.436       .  S
N766        C770   1.351       .  A
N766        C767   1.351       .  A
C768        H771   1.083       .  S
C769        C770   1.380       .  A
C769        H772   1.082       .  S
C773        C774   1.206       .  T
C775        C776   1.206       .  T
C777        C778   1.206       .  T
C779        C780   1.207       .  T
C781        C782   1.207       .  T
C783        C784   1.206       .  T
N785        C789   1.378       .  A
N785        C786   1.360       .  A
N785        C856   1.456       .  S
C786        C787   1.377       .  A
C786        C896   1.442       .  S
C787        C788   1.368       .  A
C787        H790   1.083       .  S
C788        C789   1.383       .  A
C788        H791   1.082       .  S
C789        C829   1.490       .  S
N792        C796   1.378       .  A
N792        C793   1.360       .  A
N792        C857   1.456       .  S
C793        C794   1.377       .  A
C793        C894   1.442       .  S
C794        C795   1.368       .  A
C794        H797   1.083       .  S
C795        C796   1.383       .  A
C795        H798   1.082       .  S
C796        C834   1.490       .  S
C799        N800   1.358       .  A
C799        N804   1.358       .  A
C799        C893   1.437       .  S
N800        C801   1.358       .  A
C801        N802   1.358       .  A
C801        C895   1.437       .  S
N802        C803   1.358       .  A
C803        N804   1.358       .  A
C803        C891   1.437       .  S
N805        C809   1.378       .  A
N805        C806   1.360       .  A
N805        C855   1.456       .  S
C806        C807   1.377       .  A
C806        C892   1.442       .  S
C807        C808   1.368       .  A
C807        H810   1.083       .  S
C808        C809   1.383       .  A
C808        H811   1.082       .  S
C809        C831   1.490       .  S
Zn812       O817   1.972       .  S
Zn813       O818   2.032       .  S
Zn813       O824   2.026       .  S
Zn813       O816   1.967       .  S
Zn814       O822   2.026       .  S
Zn814       O825   2.032       .  S
Zn815       O823   2.026       .  S
O817        C829   1.260       .  A
O819        C831   1.275       .  A
O820        C829   1.275       .  A
O821        C831   1.260       .  A
O823        C832   1.275       .  A
O824        C833   1.276       .  A
O826        C833   1.275       .  A
O827        C834   1.275       .  A
O828        C834   1.260       .  A
C830        N865   1.433       .  S
C832        N878   1.433       .  S
C833        N858   1.433       .  S
Zn835       O844   2.011       .  S
Zn835       O851   2.057       .  S
Zn836       O841   2.011       .  S
Zn836       O843   2.012       .  S
Zn836       O847   2.057       .  S
Zn836       O839   1.973       .  S
Zn837       O842   2.011       .  S
Zn837       O845   2.011       .  S
Zn837       O848   2.057       .  S
Zn838       O849   1.997       .  S
Zn838       O839   1.906       .  S
O840        C852   1.273       .  A
O843        C852   1.272       .  A
O844        C854   1.272       .  A
O846        C855   1.265       .  A
O847        C856   1.276       .  A
O848        C855   1.276       .  A
O849        C856   1.265       .  A
O850        C857   1.265       .  A
O851        C857   1.276       .  A
C852        C862   1.460       .  S
C853        C869   1.460       .  S
C854        C882   1.460       .  S
N858        C862   1.351       .  A
N858        C859   1.351       .  A
C859        C860   1.382       .  A
C859        C890   1.440       .  S
C860        C861   1.378       .  A
C860        H863   1.083       .  S
C861        C862   1.380       .  A
C861        H864   1.082       .  S
N865        C869   1.351       .  A
N865        C866   1.351       .  A
C866        C867   1.382       .  A
C866        C887   1.440       .  S
C867        C868   1.378       .  A
C867        H870   1.083       .  S
C868        C869   1.380       .  A
C868        H871   1.082       .  S
C872        N873   1.358       .  A
C872        N877   1.357       .  A
C872        C888   1.436       .  S
N873        C874   1.357       .  A
C874        N875   1.358       .  A
C874        C889   1.436       .  S
N875        C876   1.357       .  A
C876        N877   1.358       .  A
C876        C885   1.436       .  S
N878        C882   1.351       .  A
N878        C879   1.351       .  A
C880        H883   1.083       .  S
C881        C882   1.380       .  A
C881        H884   1.082       .  S
C885        C886   1.206       .  T
C887        C888   1.206       .  T
C889        C890   1.206       .  T
C891        C892   1.207       .  T
C893        C894   1.207       .  T
C895        C896   1.206       .  T
