geometry optimzed in LAMMPS
_audit_creation_date              2020-11-30 
_audit_creation_method            'lammps2cif' 
_symmetry_space_group_name_H-M    'P1' 
_symmetry_Int_Tables_number       1 
_symmetry_cell_setting            triclinic 
loop_ 
_symmetry_equiv_pos_as_xyz 
  x,y,z 
_cell_length_a                    32.05025907350235 
_cell_length_b                    32.00719431638256 
_cell_length_c                    23.578744402461005 
_cell_angle_alpha                 90.01384969590471 
_cell_angle_beta                  89.22117700595992 
_cell_angle_gamma                 120.00454332694012 
loop_ 
_atom_site_label 
_atom_site_type_symbol 
_atom_site_fract_x 
_atom_site_fract_y 
_atom_site_fract_z 
_atom_site_charge 
O1          O  0.22995411  0.19172640  0.18708047    -0.80790
O2          O  0.14543594  0.10682999  0.18937909    -0.77840
C3          C  0.12901524  0.06423294  0.17319895     1.02670
O4          O  0.14533470  0.03812639  0.18979808    -0.77870
O5          O  0.22999297  0.03815624  0.18722572    -0.80520
C6          C  0.27209449  0.06473282  0.16848965     1.07190
O7          O  0.29840756  0.10675019  0.18677046    -0.73280
O8          O  0.29842757  0.19180688  0.18679135    -0.73470
C9          C  0.27207659  0.20738490  0.16840697     1.07140
O10         O  0.22914197  0.19146153  0.30853121    -0.80790
O11         O  0.14500735  0.10675375  0.30835362    -0.77850
C12         C  0.12864680  0.06424141  0.32531510     1.02690
O13         O  0.14520627  0.03816912  0.30874683    -0.77880
O14         O  0.22931855  0.03772901  0.30863183    -0.80490
C15         C  0.27093076  0.06428742  0.32701908     1.07160
O16         O  0.29748315  0.10647045  0.30854323    -0.73310
O17         O  0.29735159  0.19104963  0.30860286    -0.73460
C18         C  0.27073936  0.20659739  0.32702676     1.07120
Cr19       Cr  0.19163709  0.14531656  0.24829402     1.93740
Cr20       Cr  0.19170751  0.04618815  0.24852151     1.93210
Cr21       Cr  0.29009619  0.14510038  0.24768150     1.39100
O22         O  0.22440531  0.11216350  0.24813413    -1.18540
C23         C  0.33841335  0.00260502  0.08338076     0.02070
C24         C  0.33420755  0.00069767  0.41255624     0.02070
C25         C  0.34514454  0.00605302  0.47572596    -0.11880
C26         C  0.35087820  0.00899505  0.02031210    -0.27050
H27         H  0.30254331  0.31827041  0.48694446     0.17140
H28         H  0.05466623  0.02622860  0.00804957     0.17720
C29         C  0.31150384  0.02668757  0.10229653    -0.08720
C30         C  0.29200043  0.04518534  0.12810624    -0.10280
C31         C  0.08776577  0.04343296  0.13816640    -0.08720
C32         C  0.05002592  0.02436420  0.11400668    -0.10280
C33         C  0.31130731  0.28474562  0.10192775    -0.08720
C34         C  0.29190476  0.24679307  0.12790696    -0.10280
C35         C  0.28993378  0.04447786  0.36723020    -0.08720
C36         C  0.30838319  0.02539005  0.39302571    -0.10280
C37         C  0.08667059  0.04328549  0.36042822    -0.08720
C38         C  0.04775082  0.02394714  0.38316000    -0.10280
C39         C  0.30825817  0.28306126  0.39299180    -0.08720
C40         C  0.28970235  0.24544599  0.36726632    -0.10280
O41         O  0.22562433  0.18908904  0.69107374    -0.80790
O42         O  0.14091225  0.10469383  0.69134177    -0.77840
C43         C  0.12594605  0.06296323  0.67244745     1.02670
O44         O  0.14124324  0.03637727  0.69091098    -0.77870
O45         O  0.22589300  0.03666771  0.69149764    -0.80520
C46         C  0.26829276  0.06314873  0.67375396     1.07190
O47         O  0.29439016  0.10529295  0.69106715    -0.73280
O48         O  0.29436876  0.18956365  0.69126787    -0.73470
C49         C  0.26811287  0.20525205  0.67356895     1.07140
O50         O  0.22513701  0.18938279  0.81132885    -0.80790
O51         O  0.14019294  0.10450654  0.81335213    -0.77850
C52         C  0.12432344  0.06233343  0.83188529     1.02690
O53         O  0.13977046  0.03578302  0.81297712    -0.77880
O54         O  0.22482196  0.03609680  0.81170913    -0.80490
C55         C  0.26701557  0.06234916  0.82877521     1.07160
O56         O  0.29345760  0.10460215  0.81095016    -0.73310
O57         O  0.29345835  0.18901682  0.81116541    -0.73460
C58         C  0.26722072  0.20513230  0.82865632     1.07120
Cr59       Cr  0.18680854  0.14282060  0.75179910     1.93740
Cr60       Cr  0.18677338  0.04416989  0.75179538     1.93210
Cr61       Cr  0.28574101  0.14302760  0.75117113     1.39100
O62         O  0.21981893  0.11002580  0.75161841    -1.18540
C63         C  0.33169872  0.99917067  0.58751087     0.02070
C64         C  0.32873521  0.99809184  0.91633703     0.02070
C65         C  0.31761816  0.99244872  0.97973657    -0.11880
C66         C  0.32107092  0.99387279  0.52417873    -0.27050
H67         H  0.28021641  0.30702014  0.99212552     0.17140
H68         H  0.03019056  0.01516812  0.50768943     0.17720
C69         C  0.30833338  0.02430421  0.61196926    -0.08720
C70         C  0.28902166  0.04329216  0.63621770    -0.10280
C71         C  0.08774618  0.04384229  0.63145164    -0.08720
C72         C  0.05065262  0.02530718  0.60489440    -0.10280
C73         C  0.30813000  0.28404196  0.61160068    -0.08720
C74         C  0.28875733  0.24573400  0.63586607    -0.10280
C75         C  0.28700819  0.04226730  0.86652852    -0.08720
C76         C  0.30573999  0.02330303  0.89150933    -0.10280
C77         C  0.08479271  0.04267620  0.87279201    -0.08720
C78         C  0.04666740  0.02382104  0.89889574    -0.10280
C79         C  0.30644129  0.28320237  0.89104241    -0.08720
C80         C  0.28741032  0.24537118  0.86625155    -0.10280
O81         O  0.23003590  0.52513620  0.18707300    -0.80790
O82         O  0.14550706  0.44039967  0.18938653    -0.77840
C83         C  0.12911761  0.39792455  0.17285787     1.02670
O84         O  0.14548482  0.37173132  0.18906294    -0.77870
O85         O  0.23010984  0.37157680  0.18682538    -0.80520
C86         C  0.27223045  0.39815816  0.16816852     1.07190
O87         O  0.29852253  0.44014904  0.18655056    -0.73280
O88         O  0.29848980  0.52516286  0.18674859    -0.73470
C89         C  0.27215938  0.54077411  0.16841538     1.07140
O90         O  0.22918353  0.52478276  0.30849370    -0.80790
O91         O  0.14504802  0.44005143  0.30830034    -0.77850
C92         C  0.12853234  0.39741621  0.32491618     1.02690
O93         O  0.14497832  0.37133110  0.30802647    -0.77880
O94         O  0.22923602  0.37094509  0.30827760    -0.80490
C95         C  0.27088715  0.39746483  0.32668531     1.07160
O96         O  0.29742724  0.43968526  0.30831730    -0.73310
O97         O  0.29737354  0.52435130  0.30855350    -0.73460
C98         C  0.27076967  0.53991416  0.32699084     1.07120
Cr99       Cr  0.19169853  0.47870311  0.24824880     1.93740
Cr100      Cr  0.19169782  0.37953116  0.24801147     1.93210
Cr101      Cr  0.29012204  0.47841733  0.24754588     1.39100
O102        O  0.22442914  0.44550760  0.24791002    -1.18540
C103        C  0.33833829  0.33580269  0.08309601     0.02070
C104        C  0.33421723  0.33369040  0.41231794     0.02070
C105        C  0.34531841  0.33945615  0.47547558    -0.11880
C106        C  0.35108316  0.34211385  0.02006060    -0.27050
H107        H  0.30218929  0.65123663  0.48747560     0.17140
H108        H  0.05457980  0.36188361  0.00827610     0.17720
C109        C  0.31150333  0.36001899  0.10184240    -0.08720
C110        C  0.29213134  0.37862656  0.12772363    -0.10280
C111        C  0.08777926  0.37745819  0.13799468    -0.08720
C112        C  0.04993111  0.35895208  0.11408821    -0.10280
C113        C  0.31155334  0.61828474  0.10231536    -0.08720
C114        C  0.29205357  0.58024614  0.12806544    -0.10280
C115        C  0.29004575  0.37762713  0.36673620    -0.08720
C116        C  0.30871927  0.35867905  0.39243133    -0.10280
C117        C  0.08664668  0.37638049  0.36022105    -0.08720
C118        C  0.04791756  0.35691565  0.38343106    -0.10280
C119        C  0.30794617  0.61628725  0.39318511    -0.08720
C120        C  0.28966869  0.57874223  0.36729184    -0.10280
O121        O  0.22582200  0.52269277  0.69201658    -0.80790
O122        O  0.14108362  0.43821260  0.69186239    -0.77840
C123        C  0.12558365  0.39626261  0.67341104     1.02670
O124        O  0.14069682  0.36952935  0.69202608    -0.77870
O125        O  0.22560040  0.36995016  0.69146395    -0.80520
C126        C  0.26805631  0.39628686  0.67380007     1.07190
O127        O  0.29434122  0.43833158  0.69129762    -0.73280
O128        O  0.29424303  0.52250594  0.69094399    -0.73470
C129        C  0.26809183  0.53851743  0.67388234     1.07140
O130        O  0.22517005  0.52226924  0.81226370    -0.80790
O131        O  0.14014041  0.43754493  0.81381933    -0.77850
C132        C  0.12463242  0.39551013  0.83264767     1.02690
O133        O  0.14044579  0.36919265  0.81405006    -0.77880
O134        O  0.22551658  0.36955355  0.81170881    -0.80490
C135        C  0.26768482  0.39598100  0.82880864     1.07160
O136        O  0.29389870  0.43831523  0.81114054    -0.73310
O137        O  0.29391835  0.52274149  0.81083544    -0.73460
C138        C  0.26745783  0.53838104  0.82900885     1.07120
Cr139      Cr  0.18692101  0.47610075  0.75246588     1.93740
Cr140      Cr  0.18691878  0.37749247  0.75230750     1.93210
Cr141      Cr  0.28590719  0.47637479  0.75116333     1.39100
O142        O  0.21995963  0.44334007  0.75200051    -1.18540
C143        C  0.33167887  0.33264272  0.58735848     0.02070
C144        C  0.32942538  0.33145930  0.91589743     0.02070
C145        C  0.31804891  0.32577425  0.97927202    -0.11880
C146        C  0.32124870  0.32749510  0.52395827    -0.27050
H147        H  0.28000251  0.64026143  0.99296826     0.17140
H148        H  0.03021938  0.34930536  0.50855058     0.17720
C149        C  0.30808553  0.35755754  0.61180101    -0.08720
C150        C  0.28865706  0.37639332  0.63612707    -0.10280
C151        C  0.08704949  0.37720566  0.63271187    -0.08720
C152        C  0.04990065  0.35903018  0.60615886    -0.10280
C153        C  0.30813430  0.61733689  0.61204069    -0.08720
C154        C  0.28868095  0.57900457  0.63622280    -0.10280
C155        C  0.28795931  0.37603097  0.86635692    -0.08720
C156        C  0.30682575  0.35708788  0.89111655    -0.10280
C157        C  0.08500893  0.37560557  0.87341395    -0.08720
C158        C  0.04676663  0.35640760  0.89926724    -0.10280
C159        C  0.30607537  0.61614744  0.89182289    -0.08720
C160        C  0.28747463  0.57844153  0.86681288    -0.10280
O161        O  0.22995500  0.85831870  0.18673558    -0.80790
O162        O  0.14514590  0.77359053  0.18983031    -0.77840
C163        C  0.12896690  0.73118716  0.17306152     1.02670
O164        O  0.14572509  0.70523353  0.18882566    -0.77870
O165        O  0.23020552  0.70495388  0.18707556    -0.80520
C166        C  0.27226933  0.73156537  0.16829395     1.07190
O167        O  0.29852786  0.77360601  0.18650882    -0.73280
O168        O  0.29857894  0.85866217  0.18684028    -0.73470
C169        C  0.27215893  0.87409329  0.16826317     1.07140
O170        O  0.22964276  0.85863467  0.30815983    -0.80790
O171        O  0.14552645  0.77389161  0.30873349    -0.77850
C172        C  0.12864042  0.73112270  0.32500647     1.02690
O173        O  0.14471485  0.70480313  0.30776611    -0.77880
O174        O  0.22898411  0.70440584  0.30850972    -0.80490
C175        C  0.27066943  0.73081058  0.32685380     1.07160
O176        O  0.29739619  0.77294418  0.30829211    -0.73310
O177        O  0.29756405  0.85770431  0.30861315    -0.73460
C178        C  0.27116637  0.87358064  0.32678698     1.07120
Cr179      Cr  0.19181586  0.81221870  0.24827525     1.93740
Cr180      Cr  0.19167572  0.71299229  0.24801836     1.93210
Cr181      Cr  0.29018293  0.81181073  0.24756217     1.39100
O182        O  0.22448227  0.77896761  0.24792286    -1.18540
C183        C  0.33855312  0.66933079  0.08356248     0.02070
C184        C  0.33351598  0.66685242  0.41282885     0.02070
C185        C  0.34488127  0.67259857  0.47587331    -0.11880
C186        C  0.35104224  0.67549360  0.02053228    -0.27050
H187        H  0.30233549  0.98443278  0.48710007     0.17140
H188        H  0.05433570  0.69353676  0.00930895     0.17720
C189        C  0.31162587  0.69344290  0.10220683    -0.08720
C190        C  0.29217436  0.71201765  0.12793966    -0.10280
C191        C  0.08737632  0.71037748  0.13854560    -0.08720
C192        C  0.04934353  0.69132038  0.11497879    -0.10280
C193        C  0.31143047  0.95151980  0.10199930    -0.08720
C194        C  0.29201056  0.91350769  0.12781744    -0.10280
C195        C  0.28955670  0.71088806  0.36713875    -0.08720
C196        C  0.30790926  0.69174202  0.39306535    -0.10280
C197        C  0.08674916  0.71029712  0.36031148    -0.08720
C198        C  0.04802174  0.69114467  0.38353183    -0.10280
C199        C  0.30880922  0.95019342  0.39263437    -0.08720
C200        C  0.29030281  0.91257187  0.36688196    -0.10280
O201        O  0.22594695  0.85597747  0.69195099    -0.80790
O202        O  0.14113145  0.77137435  0.69164485    -0.77840
C203        C  0.12559695  0.72930855  0.67347418     1.02670
O204        O  0.14069841  0.70267558  0.69236091    -0.77870
O205        O  0.22557335  0.70322691  0.69160254    -0.80520
C206        C  0.26804382  0.72955598  0.67397374     1.07190
O207        O  0.29435852  0.77158044  0.69151012    -0.73280
O208        O  0.29440134  0.85585913  0.69111706    -0.73470
C209        C  0.26826921  0.87187415  0.67396950     1.07140
O210        O  0.22524857  0.85566635  0.81218525    -0.80790
O211        O  0.14012907  0.77088493  0.81370112    -0.77850
C212        C  0.12471844  0.72894427  0.83279992     1.02690
O213        O  0.14055734  0.70259220  0.81435872    -0.77880
O214        O  0.22554958  0.70279132  0.81183927    -0.80490
C215        C  0.26769291  0.72920294  0.82898701     1.07160
O216        O  0.29389885  0.77155849  0.81136493    -0.73310
O217        O  0.29395270  0.85603225  0.81098545    -0.73460
C218        C  0.26754443  0.87179000  0.82899167     1.07120
Cr219      Cr  0.18696642  0.80939192  0.75236494     1.93740
Cr220      Cr  0.18695351  0.71077365  0.75252420     1.93210
Cr221      Cr  0.28595198  0.80965038  0.75134223     1.39100
O222        O  0.22000235  0.77662880  0.75209681    -1.18540
C223        C  0.33173260  0.66591470  0.58779938     0.02070
C224        C  0.32897422  0.66439493  0.91658754     0.02070
C225        C  0.31779091  0.65896214  0.97994792    -0.11880
C226        C  0.32105603  0.66062489  0.52449424    -0.27050
H227        H  0.27983850  0.97346172  0.99279599     0.17140
H228        H  0.03028221  0.68133518  0.50869493     0.17720
C229        C  0.30815718  0.69084692  0.61217565    -0.08720
C230        C  0.28865886  0.70966444  0.63635731    -0.10280
C231        C  0.08701907  0.70984196  0.63281775    -0.08720
C232        C  0.04983583  0.69099024  0.60631770    -0.10280
C233        C  0.30816300  0.95065291  0.61195867    -0.08720
C234        C  0.28887147  0.91238780  0.63631284    -0.10280
C235        C  0.28790340  0.70920610  0.86659552    -0.08720
C236        C  0.30659103  0.69015605  0.89153491    -0.10280
C237        C  0.08525063  0.70924730  0.87381620    -0.08720
C238        C  0.04714363  0.69027491  0.89997989    -0.10280
C239        C  0.30632174  0.94984173  0.89147014    -0.08720
C240        C  0.28768355  0.91202990  0.86661416    -0.10280
O241        O  0.56276278  0.19162373  0.18686038    -0.80790
O242        O  0.47851372  0.10712962  0.18966020    -0.77840
C243        C  0.46198352  0.06439366  0.17418216     1.02670
O244        O  0.47780862  0.03820247  0.19199241    -0.77870
O245        O  0.56243951  0.03878495  0.19051819    -0.80520
C246        C  0.60467244  0.06519195  0.17255839     1.07190
O247        O  0.63100995  0.10740846  0.18966340    -0.73280
O248        O  0.63152223  0.19239602  0.18835168    -0.73470
C249        C  0.60511816  0.20752383  0.16896987     1.07140
O250        O  0.56195656  0.19246092  0.30794242    -0.80790
O251        O  0.47763640  0.10771438  0.30875369    -0.77850
C252        C  0.46166365  0.06551073  0.32672008     1.02690
O253        O  0.47833111  0.03939431  0.31097962    -0.77880
O254        O  0.56213722  0.03860095  0.31093088    -0.80490
C255        C  0.60394410  0.06510314  0.32879387     1.07160
O256        O  0.63031703  0.10729379  0.31033551    -0.73310
O257        O  0.62985184  0.19140835  0.30960679    -0.73460
C258        C  0.60341140  0.20741585  0.32669886     1.07120
Cr259      Cr  0.52437878  0.14586519  0.24849717     1.93740
Cr260      Cr  0.52432954  0.04685801  0.25090237     1.93210
Cr261      Cr  0.62279722  0.14572813  0.24944674     1.39100
O262        O  0.55711198  0.11277641  0.24960185    -1.18540
C263        C  0.66637359  0.99992072  0.08648335     0.02070
C264        C  0.66800742  0.00131368  0.41260810     0.02070
C265        C  0.67912874  0.00685160  0.47572818    -0.11880
C266        C  0.65474705  0.99413990  0.02355234    -0.27050
H267        H  0.61312052  0.30710154  0.49237675     0.17140
H268        H  0.38868377  0.02792458  0.00745149     0.17720
C269        C  0.64340662  0.02521606  0.11113123    -0.08720
C270        C  0.62484472  0.04494791  0.13512988    -0.10280
C271        C  0.42124497  0.04373638  0.13842748    -0.08720
C272        C  0.38386548  0.02518551  0.11358745    -0.10280
C273        C  0.64452457  0.28460798  0.10219512    -0.08720
C274        C  0.62510257  0.24672447  0.12825682    -0.10280
C275        C  0.62346018  0.04524120  0.36821039    -0.08720
C276        C  0.64235946  0.02624184  0.39325478    -0.10280
C277        C  0.42001440  0.04471731  0.36212230    -0.08720
C278        C  0.38125157  0.02471457  0.38503713    -0.10280
C279        C  0.64069662  0.28376994  0.39163493    -0.08720
C280        C  0.62257332  0.24657418  0.36567120    -0.10280
O281        O  0.56000960  0.19046222  0.68813725    -0.80790
O282        O  0.47518107  0.10542654  0.68935181    -0.77840
C283        C  0.45948919  0.06314794  0.67192792     1.02670
O284        O  0.47465569  0.03664876  0.69119052    -0.77870
O285        O  0.55965910  0.03705718  0.69163699    -0.80520
C286        C  0.60190765  0.06347440  0.67334727     1.07190
O287        O  0.62805128  0.10586934  0.68991523    -0.73280
O288        O  0.62857082  0.19073936  0.68857559    -0.73470
C289        C  0.60237552  0.20632796  0.66983189     1.07140
O290        O  0.55899292  0.19046400  0.80935945    -0.80790
O291        O  0.47377712  0.10559511  0.81132310    -0.77850
C292        C  0.45822037  0.06368977  0.83086832     1.02690
O293        O  0.47416972  0.03728789  0.81302970    -0.77880
O294        O  0.55901819  0.03739228  0.81215614    -0.80490
C295        C  0.60125797  0.06368721  0.82917409     1.07160
O296        O  0.62771621  0.10574365  0.81029877    -0.73310
O297        O  0.62742266  0.19028411  0.80950270    -0.73460
C298        C  0.60093881  0.20610018  0.82710874     1.07120
Cr299      Cr  0.52092215  0.14396726  0.74966947     1.93740
Cr300      Cr  0.52081215  0.04513851  0.75179402     1.93210
Cr301      Cr  0.61980933  0.14413127  0.74966908     1.39100
O302        O  0.55387406  0.11108055  0.75038261    -1.18540
C303        C  0.66522487  0.99923937  0.58743196     0.02070
C304        C  0.66633009  0.00010210  0.91199753     0.02070
C305        C  0.67818116  0.00612464  0.97481622    -0.11880
C306        C  0.65487632  0.99423627  0.52403009    -0.27050
H307        H  0.61264032  0.30704747  0.99274012     0.17140
H308        H  0.36278784  0.01490268  0.50928975     0.17720
C309        C  0.64175116  0.02425721  0.61189740    -0.08720
C310        C  0.62245286  0.04331005  0.63601878    -0.10280
C311        C  0.42045894  0.04335122  0.63195159    -0.08720
C312        C  0.38280888  0.02461274  0.60641409    -0.10280
C313        C  0.64296011  0.28390373  0.60322521    -0.08720
C314        C  0.62279148  0.24591932  0.62929725    -0.10280
C315        C  0.62116542  0.04374292  0.86809805    -0.08720
C316        C  0.64035036  0.02480146  0.89277797    -0.10280
C317        C  0.41850704  0.04392498  0.87172800    -0.08720
C318        C  0.38036906  0.02439520  0.89794114    -0.10280
C319        C  0.63895162  0.28324279  0.89111228    -0.08720
C320        C  0.62057701  0.24580083  0.86550870    -0.10280
O321        O  0.56227111  0.52327592  0.18941322    -0.80790
O322        O  0.47772027  0.43918813  0.19124757    -0.77840
C323        C  0.46193815  0.39715687  0.17353025     1.02670
O324        O  0.47852746  0.37101906  0.18897385    -0.77870
O325        O  0.56277189  0.37086286  0.18644226    -0.80520
C326        C  0.60505469  0.39739601  0.16834491     1.07190
O327        O  0.63144270  0.43905827  0.18741692    -0.73280
O328        O  0.63092876  0.52348847  0.18862130    -0.73470
C329        C  0.60455443  0.53930073  0.17160222     1.07140
O330        O  0.56214769  0.52342610  0.30935602    -0.80790
O331        O  0.47834670  0.43884287  0.31015505    -0.77850
C332        C  0.46156530  0.39603958  0.32595933     1.02690
O333        O  0.47749905  0.36976092  0.30807629    -0.77880
O334        O  0.56197625  0.36958906  0.30755055    -0.80490
C335        C  0.60354349  0.39616806  0.32603786     1.07160
O336        O  0.62999896  0.43854691  0.30860887    -0.73310
O337        O  0.63039086  0.52308792  0.30887302    -0.73460
C338        C  0.60404613  0.53901704  0.32683389     1.07120
Cr339      Cr  0.52426040  0.47719825  0.24987062     1.93740
Cr340      Cr  0.52434990  0.37831607  0.24792211     1.93210
Cr341      Cr  0.62278593  0.47700809  0.24837585     1.39100
O342        O  0.55708304  0.44416621  0.24872492    -1.18540
C343        C  0.67146302  0.33561811  0.08336154     0.02070
C344        C  0.66320250  0.33179418  0.41685977     0.02070
C345        C  0.65108428  0.32582104  0.48013571    -0.11880
C346        C  0.68375247  0.34179352  0.02030693    -0.27050
H347        H  0.61302694  0.63881879  0.49211669     0.17140
H348        H  0.38893033  0.36087580  0.00736972     0.17720
C349        C  0.64455846  0.35968697  0.10204698    -0.08720
C350        C  0.62504295  0.37813494  0.12782634    -0.10280
C351        C  0.42114003  0.37703279  0.13799568    -0.08720
C352        C  0.38370191  0.35843938  0.11335534    -0.10280
C353        C  0.64327566  0.61842043  0.11103688    -0.08720
C354        C  0.62473671  0.57992655  0.13455465    -0.10280
C355        C  0.62279638  0.37635190  0.36513794    -0.08720
C356        C  0.64090904  0.35739925  0.39133305    -0.10280
C357        C  0.41988444  0.37525901  0.36139527    -0.08720
C358        C  0.38118533  0.35664833  0.38451420    -0.10280
C359        C  0.64100851  0.61616194  0.39102151    -0.08720
C360        C  0.62352569  0.57875430  0.36529704    -0.10280
O361        O  0.56066991  0.52414342  0.68850057    -0.80790
O362        O  0.47548384  0.43883183  0.68979336    -0.77840
C363        C  0.45987007  0.39676047  0.67148910     1.02670
O364        O  0.47554639  0.37028374  0.68936084    -0.77870
O365        O  0.56066081  0.37015019  0.68819566    -0.80520
C366        C  0.60273108  0.39669505  0.66893942     1.07190
O367        O  0.62887752  0.43898496  0.68638301    -0.73280
O368        O  0.62900105  0.52389168  0.68687643    -0.73470
C369        C  0.60276064  0.53978891  0.66926270     1.07140
O370        O  0.56031843  0.52325387  0.81015610    -0.80790
O371        O  0.47515050  0.43850120  0.81167783    -0.77850
C372        C  0.45921913  0.39624797  0.83019062     1.02690
O373        O  0.47490759  0.36987785  0.81120157    -0.77880
O374        O  0.56004085  0.37049005  0.80935647    -0.80490
C375        C  0.60230240  0.39679319  0.82615023     1.07160
O376        O  0.62888121  0.43877233  0.80733490    -0.73310
O377        O  0.62889705  0.52344196  0.80824443    -0.73460
C378        C  0.60240605  0.53882662  0.82750426     1.07120
Cr379      Cr  0.52190148  0.47718300  0.74987760     1.93740
Cr380      Cr  0.52178428  0.37824184  0.74943552     1.93210
Cr381      Cr  0.62079729  0.47724381  0.74739603     1.39100
O382        O  0.55483480  0.44421696  0.74888748    -1.18540
C383        C  0.67030044  0.33510198  0.58453596     0.02070
C384        C  0.66168525  0.33135701  0.91636112     0.02070
C385        C  0.65042048  0.32564734  0.97973119    -0.11880
C386        C  0.68363005  0.34173603  0.52151564    -0.27050
H387        H  0.63586583  0.65056964  0.98734304     0.17140
H388        H  0.36299219  0.34827697  0.50917245     0.17720
C389        C  0.64311192  0.35910881  0.60308882    -0.08720
C390        C  0.62296236  0.37708130  0.62881509    -0.10280
C391        C  0.42046111  0.37708673  0.63196929    -0.08720
C392        C  0.38274504  0.35820402  0.60651543    -0.10280
C393        C  0.64318658  0.61750070  0.60298956    -0.08720
C394        C  0.62294109  0.57947465  0.62892785    -0.10280
C395        C  0.62196453  0.37694810  0.86495518    -0.08720
C396        C  0.63972199  0.35747742  0.89101708    -0.10280
C397        C  0.41936243  0.37625720  0.87113228    -0.08720
C398        C  0.38117309  0.35719222  0.89744049    -0.10280
C399        C  0.64117228  0.61567314  0.89296108    -0.08720
C400        C  0.62210488  0.57796098  0.86741401    -0.10280
O401        O  0.56212003  0.85713470  0.19046758    -0.80790
O402        O  0.47768984  0.77332179  0.19221364    -0.77840
C403        C  0.46175466  0.73110695  0.17502901     1.02670
O404        O  0.47793764  0.70490681  0.19151370    -0.77870
O405        O  0.56222591  0.70543274  0.19021558    -0.80520
C406        C  0.60472572  0.73188437  0.17323836     1.07190
O407        O  0.63102834  0.77370930  0.19158557    -0.73280
O408        O  0.63115176  0.85829471  0.19229139    -0.73470
C409        C  0.60469055  0.87343880  0.17363360     1.07140
O410        O  0.56156407  0.85818753  0.31099067    -0.80790
O411        O  0.47753876  0.77321780  0.31126221    -0.77850
C412        C  0.46096783  0.73054577  0.32757296     1.02690
O413        O  0.47712005  0.70429601  0.31051999    -0.77880
O414        O  0.56114904  0.70356474  0.31021280    -0.80490
C415        C  0.60281399  0.72979766  0.32851617     1.07160
O416        O  0.62922412  0.77240326  0.31179673    -0.73310
O417        O  0.62920586  0.85676005  0.31293461    -0.73460
C418        C  0.60294798  0.87304782  0.33003813     1.07120
Cr419      Cr  0.52384626  0.81155543  0.25127768     1.93740
Cr420      Cr  0.52372339  0.71262419  0.25074458     1.93210
Cr421      Cr  0.62224108  0.81136750  0.25200968     1.39100
O422        O  0.55656347  0.77848373  0.25134941    -1.18540
C423        C  0.66640583  0.66678623  0.08673072     0.02070
C424        C  0.66299586  0.66425052  0.41643449     0.02070
C425        C  0.65097136  0.65825794  0.47981038    -0.11880
C426        C  0.65499521  0.66102964  0.02378953    -0.27050
H427        H  0.63625962  0.98579401  0.48734592     0.17140
H428        H  0.38885635  0.69425454  0.00771605     0.17720
C429        C  0.64345539  0.69212490  0.11133604    -0.08720
C430        C  0.62508907  0.71197847  0.13552188    -0.10280
C431        C  0.42125053  0.71085405  0.13889591    -0.08720
C432        C  0.38397251  0.69210332  0.11384347    -0.10280
C433        C  0.64339842  0.95164879  0.11120241    -0.08720
C434        C  0.62496016  0.91353620  0.13566069    -0.10280
C435        C  0.62220504  0.70922843  0.36635749    -0.08720
C436        C  0.64030899  0.68967095  0.39136982    -0.10280
C437        C  0.41921074  0.70964044  0.36254323    -0.08720
C438        C  0.38039670  0.69028372  0.38518068    -0.10280
C439        C  0.64169703  0.95065154  0.39370774    -0.08720
C440        C  0.62233866  0.91254856  0.36915243    -0.10280
O441        O  0.56002417  0.85598263  0.69225887    -0.80790
O442        O  0.47492807  0.77120351  0.69192254    -0.77840
C443        C  0.45955904  0.72939378  0.67289040     1.02670
O444        O  0.47526339  0.70283786  0.69046400    -0.77870
O445        O  0.56025342  0.70271852  0.68913364    -0.80520
C446        C  0.60258732  0.72924300  0.67065269     1.07190
O447        O  0.62884782  0.77105554  0.68940572    -0.73280
O448        O  0.62828657  0.85540313  0.69019387    -0.73470
C449        C  0.60217896  0.87171251  0.67371835     1.07140
O450        O  0.55941786  0.85505763  0.81277174    -0.80790
O451        O  0.47457630  0.77035840  0.81369381    -0.77850
C452        C  0.45865504  0.72806795  0.83174164     1.02690
O453        O  0.47425205  0.70168496  0.81247637    -0.77880
O454        O  0.55951687  0.70207933  0.81085777    -0.80490
C455        C  0.60138642  0.72862614  0.82893572     1.07160
O456        O  0.62787386  0.77082990  0.81074339    -0.73310
O457        O  0.62823858  0.85575575  0.81062493    -0.73460
C458        C  0.60172208  0.87121374  0.82960397     1.07120
Cr459      Cr  0.52119527  0.80903963  0.75245675     1.93740
Cr460      Cr  0.52128492  0.71027030  0.75079845     1.93210
Cr461      Cr  0.62018786  0.80912208  0.75034325     1.39100
O462        O  0.55424141  0.77616918  0.75118512    -1.18540
C463        C  0.67038255  0.66868900  0.58432295     0.02070
C464        C  0.66681897  0.66628038  0.91239191     0.02070
C465        C  0.67855152  0.67225136  0.97519124    -0.11880
C466        C  0.68353849  0.67529497  0.52117925    -0.27050
H467        H  0.63550070  0.98473485  0.98706027     0.17140
H468        H  0.36271959  0.68151208  0.50959361     0.17720
C469        C  0.64310394  0.69252648  0.60336882    -0.08720
C470        C  0.62291304  0.71013524  0.62983274    -0.10280
C471        C  0.42040852  0.71010233  0.63286603    -0.08720
C472        C  0.38284658  0.69144946  0.60700310    -0.10280
C473        C  0.64175788  0.95064149  0.61179467    -0.08720
C474        C  0.62261665  0.91234233  0.63614150    -0.10280
C475        C  0.62105518  0.70899080  0.86835687    -0.08720
C476        C  0.64064310  0.69068887  0.89331407    -0.10280
C477        C  0.41886558  0.70821841  0.87243631    -0.08720
C478        C  0.38062789  0.68972476  0.89838994    -0.10280
C479        C  0.64057372  0.94933986  0.89300335    -0.08720
C480        C  0.62158381  0.91113807  0.86843937    -0.10280
O481        O  0.89608873  0.19133119  0.18563103    -0.80790
O482        O  0.81128850  0.10651777  0.18589402    -0.77840
C483        C  0.79540840  0.06429142  0.16812700     1.02670
O484        O  0.81106012  0.03783706  0.18612047    -0.77870
O485        O  0.89603160  0.03807590  0.18550067    -0.80520
C486        C  0.93840097  0.06463897  0.16761588     1.07190
O487        O  0.96463916  0.10649202  0.18636715    -0.73280
O488        O  0.96464923  0.19155648  0.18635611    -0.73470
C489        C  0.93841351  0.20714425  0.16766596     1.07140
O490        O  0.89460993  0.19094878  0.30710473    -0.80790
O491        O  0.81036273  0.10609257  0.30612610    -0.77850
C492        C  0.79424963  0.06371295  0.32344683     1.02690
O493        O  0.81049328  0.03749469  0.30639527    -0.77880
O494        O  0.89474023  0.03698853  0.30693708    -0.80490
C495        C  0.93629555  0.06349748  0.32583596     1.07160
O496        O  0.96279658  0.10584675  0.30791793    -0.73310
O497        O  0.96274819  0.19040428  0.30796199    -0.73460
C498        C  0.93618195  0.20611593  0.32599771     1.07120
Cr499      Cr  0.85720298  0.14476295  0.24624685     1.93740
Cr500      Cr  0.85719266  0.04567584  0.24628051     1.93210
Cr501      Cr  0.95578166  0.14460645  0.24702997     1.39100
O502        O  0.89001839  0.11165715  0.24651454    -1.18540
C503        C  0.00443142  0.00174562  0.08396716     0.02070
C504        C  0.00076538  0.00055590  0.41111414     0.02070
C505        C  0.01223467  0.00643918  0.47414732    -0.11880
C506        C  0.01685276  0.00784768  0.02087388    -0.27050
H507        H  0.96971818  0.31776472  0.48647107     0.17140
H508        H  0.69629811  0.01503116  0.00789118     0.17720
C509        C  0.97804179  0.02641675  0.10236862    -0.08720
C510        C  0.95862353  0.04518306  0.12768791    -0.10280
C511        C  0.75568788  0.04446063  0.12918119    -0.08720
C512        C  0.71766586  0.02555373  0.10447351    -0.10280
C513        C  0.97788775  0.28499183  0.10240241    -0.08720
C514        C  0.95856217  0.24679508  0.12771187    -0.10280
C515        C  0.95555900  0.04365604  0.36588793    -0.08720
C516        C  0.97476729  0.02516600  0.39150318    -0.10280
C517        C  0.75310689  0.04319397  0.35996716    -0.08720
C518        C  0.71482580  0.02432646  0.38420240    -0.10280
C519        C  0.97466681  0.28287738  0.39197507    -0.08720
C520        C  0.95538613  0.24519651  0.36620311    -0.10280
O521        O  0.89433036  0.18949406  0.68769324    -0.80790
O522        O  0.80947080  0.10560662  0.68816727    -0.77840
C523        C  0.79395569  0.06361531  0.66995148     1.02670
O524        O  0.80982872  0.03733270  0.68771014    -0.77870
O525        O  0.89466824  0.03828252  0.68811680    -0.80520
C526        C  0.93739873  0.06468262  0.67184973     1.07190
O527        O  0.96361264  0.10640940  0.69047265    -0.73280
O528        O  0.96355689  0.19103427  0.69070467    -0.73470
C529        C  0.93715035  0.20612062  0.67167656     1.07140
O530        O  0.89330490  0.19071087  0.80788213    -0.80790
O531        O  0.80936432  0.10580746  0.80836552    -0.77850
C532        C  0.79306446  0.06331825  0.82521584     1.02690
O533        O  0.80898857  0.03692959  0.80794374    -0.77880
O534        O  0.89310206  0.03626128  0.80827765    -0.80490
C535        C  0.93462187  0.06258176  0.82718986     1.07160
O536        O  0.96103159  0.10520475  0.81059106    -0.73310
O537        O  0.96093509  0.18927808  0.81087698    -0.73460
C538        C  0.93465479  0.20569981  0.82715604     1.07120
Cr539      Cr  0.85563302  0.14392097  0.74817366     1.93740
Cr540      Cr  0.85565096  0.04519840  0.74816477     1.93210
Cr541      Cr  0.95427578  0.14397560  0.75037843     1.39100
O542        O  0.88851675  0.11102538  0.74891812    -1.18540
C543        C  0.99963920  0.99981426  0.58599167     0.02070
C544        C  0.99502170  0.99791521  0.91686468     0.02070
C545        C  0.98366480  0.99211206  0.98021250    -0.11880
C546        C  0.98855992  0.99434346  0.52283706    -0.27050
H547        H  0.94579360  0.30586923  0.99323292     0.17140
H548        H  0.69671069  0.01489802  0.50916832     0.17720
C549        C  0.97657459  0.02507999  0.61048706    -0.08720
C550        C  0.95806826  0.04485379  0.63452690    -0.10280
C551        C  0.75432494  0.04378657  0.63092617    -0.08720
C552        C  0.71631757  0.02481532  0.60620836    -0.10280
C553        C  0.97605969  0.28490362  0.61041111    -0.08720
C554        C  0.95768467  0.24652848  0.63423429    -0.10280
C555        C  0.95394730  0.04227665  0.86573490    -0.08720
C556        C  0.97229781  0.02327157  0.89150852    -0.10280
C557        C  0.75174816  0.04271873  0.86095383    -0.08720
C558        C  0.71306616  0.02349474  0.88394131    -0.10280
C559        C  0.97228480  0.28265180  0.89162731    -0.08720
C560        C  0.95393891  0.24531112  0.86576857    -0.10280
O561        O  0.89458083  0.52453130  0.19044892    -0.80790
O562        O  0.81004808  0.43935645  0.19289817    -0.77840
C563        C  0.79409061  0.39704674  0.17588411     1.02670
O564        O  0.80993423  0.37062979  0.19289919    -0.77870
O565        O  0.89446511  0.37010142  0.18999482    -0.80520
C566        C  0.93635964  0.39663445  0.17023893     1.07190
O567        O  0.96261083  0.43890262  0.18765434    -0.73280
O568        O  0.96253141  0.52359205  0.18749714    -0.73470
C569        C  0.93634956  0.53975212  0.17040533     1.07140
O570        O  0.89439811  0.52354829  0.31194453    -0.80790
O571        O  0.80929001  0.43879293  0.31358035    -0.77850
C572        C  0.79334796  0.39654653  0.33211496     1.02690
O573        O  0.80934495  0.37028831  0.31359648    -0.77880
O574        O  0.89449095  0.37071123  0.31150624    -0.80490
C575        C  0.93666560  0.39724647  0.32838477     1.07160
O576        O  0.96308387  0.43918972  0.30911328    -0.73310
O577        O  0.96316800  0.52415404  0.30894892    -0.73460
C578        C  0.93667691  0.53944598  0.32853415     1.07120
Cr579      Cr  0.85616144  0.47757297  0.25202802     1.93740
Cr580      Cr  0.85614164  0.37850072  0.25183808     1.93210
Cr581      Cr  0.95484668  0.47745228  0.24861132     1.39100
O582        O  0.88901682  0.44449053  0.25080886    -1.18540
C583        C  0.00430607  0.33609957  0.08413848     0.02070
C584        C  0.00101408  0.33355483  0.41161703     0.02070
C585        C  0.01240741  0.33928590  0.47472023    -0.11880
C586        C  0.01675577  0.34249423  0.02107180    -0.27050
H587        H  0.96979298  0.65205258  0.48661585     0.17140
H588        H  0.72156358  0.36043255  0.00749573     0.17720
C589        C  0.97669048  0.35948457  0.10347621    -0.08720
C590        C  0.95637254  0.37708508  0.12964873    -0.10280
C591        C  0.75395122  0.37697726  0.13917233    -0.08720
C592        C  0.71690388  0.35840271  0.11364375    -0.10280
C593        C  0.97645048  0.61734293  0.10386980    -0.08720
C594        C  0.95629727  0.57933555  0.12987634    -0.10280
C595        C  0.95647785  0.37762852  0.36767776    -0.08720
C596        C  0.97542367  0.35861499  0.39256894    -0.10280
C597        C  0.75328767  0.37652871  0.37275808    -0.08720
C598        C  0.71506069  0.35756021  0.39898129    -0.10280
C599        C  0.97546998  0.61691655  0.39272097    -0.08720
C600        C  0.95650734  0.57891546  0.36783761    -0.10280
O601        O  0.89286732  0.52293119  0.69287379    -0.80790
O602        O  0.80847313  0.43847759  0.69488203    -0.77840
C603        C  0.79260797  0.39623901  0.67778682     1.02670
O604        O  0.80840876  0.36986780  0.69498275    -0.77870
O605        O  0.89287242  0.37001090  0.69288487    -0.80520
C606        C  0.93504500  0.39642127  0.67437005     1.07190
O607        O  0.96132688  0.43864152  0.69137272    -0.73280
O608        O  0.96131243  0.52284825  0.69132311    -0.73470
C609        C  0.93501753  0.53871952  0.67431186     1.07140
O610        O  0.89294828  0.52296650  0.81310156    -0.80790
O611        O  0.80802968  0.43826905  0.81549544    -0.77850
C612        C  0.79217440  0.39607225  0.83393494     1.02690
O613        O  0.80808320  0.36976155  0.81559970    -0.77880
O614        O  0.89301695  0.37014981  0.81306804    -0.80490
C615        C  0.93525334  0.39653451  0.82961929     1.07160
O616        O  0.96158527  0.43868880  0.81139516    -0.73310
O617        O  0.96155532  0.52317851  0.81138457    -0.73460
C618        C  0.93519034  0.53891606  0.82966718     1.07120
Cr619      Cr  0.85456464  0.47665807  0.75398733     1.93740
Cr620      Cr  0.85457753  0.37794526  0.75402575     1.93210
Cr621      Cr  0.95335820  0.47679137  0.75158618     1.39100
O622        O  0.88750613  0.44379961  0.75319954    -1.18540
C623        C  0.99896471  0.33349755  0.58668758     0.02070
C624        C  0.99508687  0.33072327  0.91708488     0.02070
C625        C  0.98361342  0.32510793  0.98038296    -0.11880
C626        C  0.98849307  0.32828563  0.52330772    -0.27050
H627        H  0.94569177  0.63991059  0.99346600     0.17140
H628        H  0.72159393  0.36044122  0.50932481     0.17720
C629        C  0.97491470  0.35788546  0.61153343    -0.08720
C630        C  0.95539812  0.37648015  0.63627870    -0.10280
C631        C  0.75255724  0.37618426  0.64091963    -0.08720
C632        C  0.71551470  0.35768516  0.61534957    -0.10280
C633        C  0.97482000  0.61712311  0.61145655    -0.08720
C634        C  0.95532892  0.57898126  0.63616584    -0.10280
C635        C  0.95521148  0.37652337  0.86727997    -0.08720
C636        C  0.97312514  0.35680917  0.89222898    -0.10280
C637        C  0.75200418  0.37599481  0.87384440    -0.08720
C638        C  0.71339710  0.35683988  0.89884509    -0.10280
C639        C  0.97314482  0.61645606  0.89261144    -0.08720
C640        C  0.95511500  0.57886964  0.86746255    -0.10280
O641        O  0.89403149  0.85739652  0.18858367    -0.80790
O642        O  0.80909717  0.77219348  0.18967395    -0.77840
C643        C  0.79389607  0.73031296  0.17103137     1.02670
O644        O  0.80942917  0.70377306  0.18911072    -0.77870
O645        O  0.89417205  0.70332640  0.18883089    -0.80520
C646        C  0.93617893  0.72996284  0.16950726     1.07190
O647        O  0.96225649  0.77223527  0.18698976    -0.73280
O648        O  0.96231786  0.85705528  0.18724984    -0.73470
C649        C  0.93614090  0.87300050  0.16947373     1.07140
O650        O  0.89348385  0.85666949  0.31015585    -0.80790
O651        O  0.80833207  0.77181416  0.31164196    -0.77850
C652        C  0.79233280  0.72954647  0.33015231     1.02690
O653        O  0.80790016  0.70309238  0.31108858    -0.77880
O654        O  0.89313738  0.70352094  0.31040734    -0.80490
C655        C  0.93537074  0.72987601  0.32753201     1.07160
O656        O  0.96194108  0.77181349  0.30834319    -0.73310
O657        O  0.96200317  0.85672310  0.30862177    -0.73460
C658        C  0.93557605  0.87231044  0.32754253     1.07120
Cr659      Cr  0.85520471  0.81046556  0.24992247     1.93740
Cr660      Cr  0.85513256  0.71145224  0.24979229     1.93210
Cr661      Cr  0.95404459  0.81041489  0.24798182     1.39100
O662        O  0.88812938  0.77744469  0.24923701    -1.18540
C663        C  0.00370313  0.66847687  0.08496579     0.02070
C664        C  0.00113172  0.66761397  0.41176333     0.02070
C665        C  0.01250307  0.67331139  0.47486542    -0.11880
C666        C  0.01645500  0.67481085  0.02189948    -0.27050
H667        H  0.96955627  0.98518322  0.48608135     0.17140
H668        H  0.69660743  0.68210879  0.00836693     0.17720
C669        C  0.97662722  0.69252545  0.10365819    -0.08720
C670        C  0.95644682  0.71045787  0.12934558    -0.10280
C671        C  0.75507245  0.71092630  0.13087456    -0.08720
C672        C  0.71755275  0.69223390  0.10516603    -0.10280
C673        C  0.97675120  0.95069993  0.10312128    -0.08720
C674        C  0.95639576  0.91270690  0.12913355    -0.10280
C675        C  0.95523052  0.71025043  0.36704617    -0.08720
C676        C  0.97479408  0.69193284  0.39228131    -0.10280
C677        C  0.75273600  0.70971409  0.37147223    -0.08720
C678        C  0.71480772  0.69058688  0.39832847    -0.10280
C679        C  0.97478665  0.94979993  0.39202671    -0.08720
C680        C  0.95542651  0.91181314  0.36699782    -0.10280
O681        O  0.89529270  0.85693387  0.68980798    -0.80790
O682        O  0.81082101  0.77303747  0.69122642    -0.77840
C683        C  0.79425597  0.73049355  0.67498076     1.02670
O684        O  0.81015857  0.70417946  0.69199806    -0.77870
O685        O  0.89472342  0.70498562  0.68926254    -0.80520
C686        C  0.93735503  0.73116299  0.67250289     1.07190
O687        O  0.96394443  0.77281733  0.69111172    -0.73280
O688        O  0.96404349  0.85745043  0.69067314    -0.73470
C689        C  0.93772986  0.87298860  0.67258596     1.07140
O690        O  0.89444451  0.85745290  0.80987948    -0.80790
O691        O  0.81044049  0.77283262  0.81026686    -0.77850
C692        C  0.79438869  0.73046562  0.82742802     1.02690
O693        O  0.81091619  0.70436773  0.81102382    -0.77880
O694        O  0.89473936  0.70345209  0.80935828    -0.80490
C695        C  0.93618994  0.72997471  0.82806176     1.07160
O696        O  0.96241266  0.77261277  0.81138200    -0.73310
O697        O  0.96255238  0.85685293  0.81093233    -0.73460
C698        C  0.93609675  0.87281622  0.82810231     1.07120
Cr699      Cr  0.85686057  0.81113493  0.75034480     1.93740
Cr700      Cr  0.85675759  0.71228736  0.75043850     1.93210
Cr701      Cr  0.95531698  0.81096914  0.75089434     1.39100
O702        O  0.88961262  0.77811477  0.75054906    -1.18540
C703        C  0.99890201  0.66564908  0.58680757     0.02070
C704        C  0.99543224  0.66450576  0.91768852     0.02070
C705        C  0.98358177  0.65866383  0.98092363    -0.11880
C706        C  0.98852145  0.66050305  0.52340331    -0.27050
H707        H  0.94586256  0.97359451  0.99312900     0.17140
H708        H  0.72147359  0.69472713  0.50885897     0.17720
C709        C  0.97595506  0.69125361  0.61069193    -0.08720
C710        C  0.95756111  0.71114457  0.63473375    -0.10280
C711        C  0.75333319  0.71007131  0.63940933    -0.08720
C712        C  0.71579517  0.69136648  0.61480165    -0.10280
C713        C  0.97645512  0.95142404  0.61047847    -0.08720
C714        C  0.95802282  0.91323434  0.63479879    -0.10280
C715        C  0.95547930  0.70973978  0.86649972    -0.08720
C716        C  0.97325042  0.69022496  0.89223163    -0.10280
C717        C  0.75260277  0.70957053  0.86233814    -0.08720
C718        C  0.71362289  0.68999106  0.88456998    -0.10280
C719        C  0.97293307  0.94983074  0.89190714    -0.08720
C720        C  0.95531979  0.91239394  0.86646418    -0.10280
loop_ 
_geom_bond_atom_site_label_1 
_geom_bond_atom_site_label_2 
_geom_bond_distance 
_geom_bond_site_symmetry_2 
_ccdc_geom_bond_type 
O1          Cr19   1.981       .  S
O1            C9   1.255       .  A
O2          Cr19   1.967       .  S
O2            C3   1.253       .  A
C3            O4   1.252       .  A
C3           C31   1.422       .  S
O4          Cr20   1.966       .  S
O5          Cr20   1.982       .  S
O5            C6   1.255       .  A
C6            O7   1.257       .  A
C6           C30   1.445       .  S
O7          Cr21   1.989       .  S
O8          Cr21   1.990       .  S
O8            C9   1.257       .  A
C9           C34   1.445       .  S
O10         Cr19   1.978       .  S
O10          C18   1.254       .  A
O11         Cr19   1.965       .  S
O11          C12   1.252       .  A
C12          O13   1.252       .  A
C12          C37   1.419       .  S
O13         Cr20   1.966       .  S
O14         Cr20   1.977       .  S
O14          C15   1.253       .  A
C15          O16   1.256       .  A
C15          C35   1.440       .  S
O16         Cr21   1.987       .  S
O17         Cr21   1.987       .  S
O17          C18   1.256       .  A
C18          C40   1.440       .  S
Cr19         O22   1.829       .  S
Cr20         O22   1.829       .  S
Cr21         O22   1.823       .  S
C23          C26   1.522       .  S
C23          C29   1.480       .  S
C23         C272   1.458       .  S
C23         C193   1.480   1_545  S
C24          C25   1.525       .  S
C24          C36   1.479       .  S
C24         C278   1.449       .  S
C24         C199   1.480   1_545  S
C25          C66   1.315   1_545  D
C25         H187   1.214   1_545  S
C26          C65   1.340   1_544  D
C26         H268   1.088       .  S
H27         C105   1.214       .  S
H28         C506   1.088       .  S
C29          C30   1.213       .  T
C31          C32   1.200       .  T
C32         C503   1.460       .  S
C33         C103   1.481       .  S
C33          C34   1.213       .  T
C35          C36   1.210       .  T
C37          C38   1.198       .  T
C38         C504   1.452       .  S
C39         C104   1.479       .  S
C39          C40   1.210       .  T
O41         Cr59   1.975       .  S
O41          C49   1.254       .  A
O42         Cr59   1.986       .  S
O42          C43   1.256       .  A
C43          O44   1.256       .  A
C43          C71   1.446       .  S
O44         Cr60   1.986       .  S
O45         Cr60   1.976       .  S
O45          C46   1.254       .  A
C46          O47   1.252       .  A
C46          C70   1.426       .  S
O47         Cr61   1.967       .  S
O48         Cr61   1.967       .  S
O48          C49   1.252       .  A
C49          C74   1.426       .  S
O50         Cr59   1.979       .  S
O50          C58   1.255       .  A
O51         Cr59   1.988       .  S
O51          C52   1.257       .  A
C52          O53   1.257       .  A
C52          C77   1.450       .  S
O53         Cr60   1.990       .  S
O54         Cr60   1.978       .  S
O54          C55   1.255       .  A
C55          O56   1.252       .  A
C55          C75   1.430       .  S
O56         Cr61   1.969       .  S
O57         Cr61   1.968       .  S
O57          C58   1.252       .  A
C58          C80   1.430       .  S
Cr59         O62   1.825       .  S
Cr60         O62   1.825       .  S
Cr61         O62   1.830       .  S
C63          C66   1.527       .  S
C63          C69   1.460   1_565  S
C63         C312   1.494   1_565  S
C63         C233   1.459       .  S
C64          C65   1.522       .  S
C64          C76   1.464   1_565  S
C64         C318   1.491   1_565  S
C64         C239   1.465       .  S
C65         H227   1.088       .  S
C66         H308   1.205   1_565  S
H67         C145   1.088       .  S
H68         C546   1.204   1_445  S
C69          C70   1.202       .  T
C71          C72   1.213       .  T
C72         C543   1.491   1_445  S
C73         C143   1.460       .  S
C73          C74   1.202       .  T
C75          C76   1.204       .  T
C77          C78   1.216       .  T
C78         C544   1.488   1_445  S
C79         C144   1.465       .  S
C79          C80   1.204       .  T
O81         Cr99   1.981       .  S
O81          C89   1.255       .  A
O82         Cr99   1.965       .  S
O82          C83   1.252       .  A
C83          O84   1.253       .  A
C83         C111   1.422       .  S
O84        Cr100   1.968       .  S
O85        Cr100   1.982       .  S
O85          C86   1.255       .  A
C86          O87   1.257       .  A
C86         C110   1.445       .  S
O87        Cr101   1.990       .  S
O88        Cr101   1.989       .  S
O88          C89   1.257       .  A
C89         C114   1.444       .  S
O90         Cr99   1.977       .  S
O90          C98   1.254       .  A
O91         Cr99   1.966       .  S
O91          C92   1.252       .  A
C92          O93   1.252       .  A
C92         C117   1.419       .  S
O93        Cr100   1.965       .  S
O94        Cr100   1.980       .  S
O94          C95   1.254       .  A
C95          O96   1.256       .  A
C95         C115   1.442       .  S
O96        Cr101   1.986       .  S
O97        Cr101   1.988       .  S
O97          C98   1.256       .  A
C98         C120   1.441       .  S
Cr99        O102   1.829       .  S
Cr100       O102   1.829       .  S
Cr101       O102   1.823       .  S
C103        C106   1.522       .  S
C103        C109   1.481       .  S
C103        C352   1.457       .  S
C104        C105   1.525       .  S
C104        C116   1.480       .  S
C104        C358   1.450       .  S
C105        C146   1.315       .  D
C106        C145   1.339   1_554  D
C106        H348   1.088       .  S
H107        C185   1.212       .  S
H108        C586   1.088       .  S
C109        C110   1.213       .  T
C111        C112   1.200       .  T
C112        C583   1.459       .  S
C113        C183   1.480       .  S
C113        C114   1.213       .  T
C115        C116   1.211       .  T
C117        C118   1.199       .  T
C118        C584   1.452       .  S
C119        C184   1.480       .  S
C119        C120   1.211       .  T
O121       Cr139   1.976       .  S
O121        C129   1.254       .  A
O122       Cr139   1.986       .  S
O122        C123   1.256       .  A
C123        O124   1.257       .  A
C123        C151   1.448       .  S
O124       Cr140   1.990       .  S
O125       Cr140   1.976       .  S
O125        C126   1.254       .  A
C126        O127   1.251       .  A
C126        C150   1.426       .  S
O127       Cr141   1.966       .  S
O128       Cr141   1.966       .  S
O128        C129   1.251       .  A
C129        C154   1.426       .  S
O130       Cr139   1.977       .  S
O130        C138   1.255       .  A
O131       Cr139   1.989       .  S
O131        C132   1.257       .  A
C132        O133   1.257       .  A
C132        C157   1.449       .  S
O133       Cr140   1.988       .  S
O134       Cr140   1.979       .  S
O134        C135   1.255       .  A
C135        O136   1.252       .  A
C135        C155   1.430       .  S
O136       Cr141   1.968       .  S
O137       Cr141   1.969       .  S
O137        C138   1.252       .  A
C138        C160   1.429       .  S
Cr139       O142   1.825       .  S
Cr140       O142   1.825       .  S
Cr141       O142   1.830       .  S
C143        C146   1.527       .  S
C143        C149   1.460       .  S
C143        C392   1.494       .  S
C144        C145   1.522       .  S
C144        C156   1.465       .  S
C144        C398   1.494       .  S
C146        H388   1.205       .  S
H147        C225   1.088       .  S
H148        C626   1.204   1_455  S
C149        C150   1.202       .  T
C151        C152   1.215       .  T
C152        C623   1.493   1_455  S
C153        C223   1.459       .  S
C153        C154   1.202       .  T
C155        C156   1.204       .  T
C157        C158   1.216       .  T
C158        C624   1.488   1_455  S
C159        C224   1.464       .  S
C159        C160   1.204       .  T
O161       Cr179   1.981       .  S
O161        C169   1.255       .  A
O162       Cr179   1.967       .  S
O162        C163   1.252       .  A
C163        O164   1.252       .  A
C163        C191   1.423       .  S
O164       Cr180   1.967       .  S
O165       Cr180   1.981       .  S
O165        C166   1.255       .  A
C166        O167   1.257       .  A
C166        C190   1.444       .  S
O167       Cr181   1.989       .  S
O168       Cr181   1.989       .  S
O168        C169   1.257       .  A
C169        C194   1.445       .  S
O170       Cr179   1.979       .  S
O170        C178   1.254       .  A
O171       Cr179   1.965       .  S
O171        C172   1.252       .  A
C172        O173   1.252       .  A
C172        C197   1.419       .  S
O173       Cr180   1.966       .  S
O174       Cr180   1.979       .  S
O174        C175   1.254       .  A
C175        O176   1.256       .  A
C175        C195   1.441       .  S
O176       Cr181   1.987       .  S
O177       Cr181   1.987       .  S
O177        C178   1.256       .  A
C178        C200   1.441       .  S
Cr179       O182   1.828       .  S
Cr180       O182   1.829       .  S
Cr181       O182   1.823       .  S
C183        C186   1.521       .  S
C183        C189   1.480       .  S
C183        C432   1.458       .  S
C184        C185   1.524       .  S
C184        C196   1.480       .  S
C184        C438   1.446       .  S
C185        C226   1.315       .  D
C186        C225   1.340   1_554  D
C186        H428   1.088       .  S
H188        C666   1.088       .  S
C189        C190   1.213       .  T
C191        C192   1.201       .  T
C192        C663   1.461       .  S
C193        C194   1.213       .  T
C195        C196   1.211       .  T
C197        C198   1.199       .  T
C198        C664   1.453       .  S
C199        C200   1.211       .  T
O201       Cr219   1.976       .  S
O201        C209   1.254       .  A
O202       Cr219   1.989       .  S
O202        C203   1.257       .  A
C203        O204   1.256       .  A
C203        C231   1.448       .  S
O204       Cr220   1.987       .  S
O205       Cr220   1.976       .  S
O205        C206   1.254       .  A
C206        O207   1.251       .  A
C206        C230   1.426       .  S
O207       Cr221   1.966       .  S
O208       Cr221   1.967       .  S
O208        C209   1.252       .  A
C209        C234   1.426       .  S
O210       Cr219   1.979       .  S
O210        C218   1.255       .  A
O211       Cr219   1.989       .  S
O211        C212   1.257       .  A
C212        O213   1.257       .  A
C212        C237   1.450       .  S
O213       Cr220   1.989       .  S
O214       Cr220   1.979       .  S
O214        C215   1.255       .  A
C215        O216   1.252       .  A
C215        C235   1.430       .  S
O216       Cr221   1.969       .  S
O217       Cr221   1.969       .  S
O217        C218   1.252       .  A
C218        C240   1.430       .  S
Cr219       O222   1.825       .  S
Cr220       O222   1.825       .  S
Cr221       O222   1.830       .  S
C223        C226   1.526       .  S
C223        C229   1.459       .  S
C223        C472   1.496       .  S
C224        C225   1.521       .  S
C224        C236   1.465       .  S
C224        C478   1.490       .  S
C226        H468   1.203       .  S
H228        C706   1.205   1_455  S
C229        C230   1.202       .  T
C231        C232   1.215       .  T
C232        C703   1.493   1_455  S
C233        C234   1.202       .  T
C235        C236   1.205       .  T
C237        C238   1.216       .  T
C238        C704   1.489   1_455  S
C239        C240   1.205       .  T
O241       Cr259   1.980       .  S
O241        C249   1.254       .  A
O242       Cr259   1.963       .  S
O242        C243   1.251       .  A
C243        O244   1.252       .  A
C243        C271   1.421       .  S
O244       Cr260   1.968       .  S
O245       Cr260   1.963       .  S
O245        C246   1.252       .  A
C246        O247   1.253       .  A
C246        C270   1.421       .  S
O247       Cr261   1.968       .  S
O248       Cr261   1.989       .  S
O248        C249   1.257       .  A
C249        C274   1.444       .  S
O250       Cr259   1.972       .  S
O250        C258   1.253       .  A
O251       Cr259   1.967       .  S
O251        C252   1.253       .  A
C252        O253   1.250       .  A
C252        C277   1.415       .  S
O253       Cr260   1.957       .  S
O254       Cr260   1.977       .  S
O254        C255   1.253       .  A
C255        O256   1.255       .  A
C255        C275   1.440       .  S
O256       Cr261   1.985       .  S
O257       Cr261   1.969       .  S
O257        C258   1.252       .  A
C258        C280   1.427       .  S
Cr259       O262   1.826       .  S
Cr260       O262   1.827       .  S
Cr261       O262   1.823       .  S
C263        C266   1.523       .  S
C263        C269   1.456   1_565  S
C263        C512   1.492   1_565  S
C263        C433   1.456       .  S
C264        C265   1.525       .  S
C264        C276   1.479       .  S
C264        C518   1.453       .  S
C264        C439   1.477   1_545  S
C265        C306   1.314   1_545  D
C265        H427   1.217   1_545  S
C266        C305   1.312   1_564  D
C266        H508   1.205   1_565  S
H267        C345   1.088       .  S
C269        C270   1.200       .  T
C271        C272   1.199       .  T
C273        C343   1.479       .  S
C273        C274   1.213       .  T
C275        C276   1.210       .  T
C277        C278   1.197       .  T
C279        C344   1.463       .  S
C279        C280   1.203       .  T
O281       Cr299   1.994       .  S
O281        C289   1.258       .  A
O282       Cr299   1.985       .  S
O282        C283   1.256       .  A
C283        O284   1.257       .  A
C283        C311   1.447       .  S
O284       Cr300   1.990       .  S
O285       Cr300   1.976       .  S
O285        C286   1.254       .  A
C286        O287   1.252       .  A
C286        C310   1.426       .  S
O287       Cr301   1.967       .  S
O288       Cr301   1.988       .  S
O288        C289   1.256       .  A
C289        C314   1.450       .  S
O290       Cr299   1.978       .  S
O290        C298   1.255       .  A
O291       Cr299   1.997       .  S
O291        C292   1.259       .  A
C292        O293   1.256       .  A
C292        C317   1.453       .  S
O293       Cr300   1.987       .  S
O294       Cr300   1.984       .  S
O294        C295   1.256       .  A
C295        O296   1.256       .  A
C295        C315   1.442       .  S
O296       Cr301   1.985       .  S
O297       Cr301   1.970       .  S
O297        C298   1.253       .  A
C298        C320   1.430       .  S
Cr299       O302   1.826       .  S
Cr300       O302   1.828       .  S
Cr301       O302   1.830       .  S
C303        C306   1.527       .  S
C303        C309   1.460   1_565  S
C303        C552   1.492   1_565  S
C303        C473   1.461       .  S
C304        C305   1.522       .  S
C304        C316   1.481       .  S
C304        C558   1.447       .  S
C304        C479   1.480   1_545  S
C305        H467   1.215   1_545  S
C306        H548   1.208   1_565  S
H307        C385   1.088       .  S
C309        C310   1.202       .  T
C311        C312   1.214       .  T
C313        C383   1.484       .  S
C313        C314   1.215       .  T
C315        C316   1.211       .  T
C317        C318   1.218       .  T
C319        C384   1.465       .  S
C319        C320   1.205       .  T
O321       Cr339   1.962       .  S
O321        C329   1.251       .  A
O322       Cr339   1.964       .  S
O322        C323   1.251       .  A
C323        O324   1.251       .  A
C323        C351   1.419       .  S
O324       Cr340   1.964       .  S
O325       Cr340   1.980       .  S
O325        C326   1.254       .  A
C326        O327   1.256       .  A
C326        C350   1.443       .  S
O327       Cr341   1.986       .  S
O328       Cr341   1.967       .  S
O328        C329   1.253       .  A
C329        C354   1.420       .  S
O330       Cr339   1.970       .  S
O330        C338   1.252       .  A
O331       Cr339   1.957       .  S
O331        C332   1.250       .  A
C332        O333   1.253       .  A
C332        C357   1.416       .  S
O333       Cr340   1.968       .  S
O334       Cr340   1.973       .  S
O334        C335   1.253       .  A
C335        O336   1.252       .  A
C335        C355   1.428       .  S
O336       Cr341   1.970       .  S
O337       Cr341   1.979       .  S
O337        C338   1.254       .  A
C338        C360   1.432       .  S
Cr339       O342   1.827       .  S
Cr340       O342   1.825       .  S
Cr341       O342   1.823       .  S
C343        C346   1.520       .  S
C343        C349   1.478       .  S
C343        C592   1.459       .  S
C344        C345   1.524       .  S
C344        C356   1.464       .  S
C344        C598   1.493       .  S
C345        C386   1.340       .  D
C346        C385   1.341   1_554  D
C346        H588   1.088       .  S
H347        C425   1.088       .  S
C349        C350   1.212       .  T
C351        C352   1.198       .  T
C353        C423   1.455       .  S
C353        C354   1.199       .  T
C355        C356   1.204       .  T
C357        C358   1.197       .  T
C359        C424   1.467       .  S
C359        C360   1.206       .  T
O361       Cr379   1.995       .  S
O361        C369   1.259       .  A
O362       Cr379   1.989       .  S
O362        C363   1.258       .  A
C363        O364   1.257       .  A
C363        C391   1.448       .  S
O364       Cr380   1.987       .  S
O365       Cr380   1.995       .  S
O365        C366   1.259       .  A
C366        O367   1.256       .  A
C366        C390   1.449       .  S
O367       Cr381   1.986       .  S
O368       Cr381   1.983       .  S
O368        C369   1.255       .  A
C369        C394   1.449       .  S
O370       Cr379   1.985       .  S
O370        C378   1.256       .  A
O371       Cr379   1.997       .  S
O371        C372   1.259       .  A
C372        O373   1.259       .  A
C372        C397   1.457       .  S
O373       Cr380   1.997       .  S
O374       Cr380   1.978       .  S
O374        C375   1.255       .  A
C375        O376   1.254       .  A
C375        C395   1.433       .  S
O376       Cr381   1.978       .  S
O377       Cr381   1.984       .  S
O377        C378   1.256       .  A
C378        C400   1.441       .  S
Cr379       O382   1.828       .  S
Cr380       O382   1.829       .  S
Cr381       O382   1.831       .  S
C383        C386   1.526       .  S
C383        C389   1.483       .  S
C383        C632   1.460       .  S
C384        C385   1.522       .  S
C384        C396   1.467       .  S
C384        C638   1.487       .  S
C386        H628   1.088       .  S
H387        C465   1.215       .  S
C389        C390   1.215       .  T
C391        C392   1.215       .  T
C393        C463   1.483       .  S
C393        C394   1.215       .  T
C395        C396   1.206       .  T
C397        C398   1.220       .  T
C399        C464   1.479       .  S
C399        C400   1.210       .  T
O401       Cr419   1.963       .  S
O401        C409   1.251       .  A
O402       Cr419   1.967       .  S
O402        C403   1.251       .  A
C403        O404   1.251       .  A
C403        C431   1.421       .  S
O404       Cr420   1.964       .  S
O405       Cr420   1.962       .  S
O405        C406   1.251       .  A
C406        O407   1.253       .  A
C406        C430   1.422       .  S
O407       Cr421   1.972       .  S
O408       Cr421   1.970       .  S
O408        C409   1.253       .  A
C409        C434   1.422       .  S
O410       Cr419   1.978       .  S
O410        C418   1.254       .  A
O411       Cr419   1.957       .  S
O411        C412   1.251       .  A
C412        O413   1.251       .  A
C412        C437   1.412       .  S
O413       Cr420   1.958       .  S
O414       Cr420   1.970       .  S
O414        C415   1.252       .  A
C415        O416   1.252       .  A
C415        C435   1.428       .  S
O416       Cr421   1.970       .  S
O417       Cr421   1.977       .  S
O417        C418   1.254       .  A
C418        C440   1.437       .  S
Cr419       O422   1.825       .  S
Cr420       O422   1.826       .  S
Cr421       O422   1.823       .  S
C423        C426   1.522       .  S
C423        C429   1.456       .  S
C423        C672   1.491       .  S
C424        C425   1.526       .  S
C424        C436   1.464       .  S
C424        C678   1.494       .  S
C425        C466   1.340       .  D
C426        C465   1.311   1_554  D
C426        H668   1.205       .  S
C429        C430   1.200       .  T
C431        C432   1.199       .  T
C433        C434   1.200       .  T
C435        C436   1.204       .  T
C437        C438   1.195       .  T
C439        C440   1.208       .  T
O441       Cr459   1.976       .  S
O441        C449   1.254       .  A
O442       Cr459   1.991       .  S
O442        C443   1.257       .  A
C443        O444   1.257       .  A
C443        C471   1.450       .  S
O444       Cr460   1.990       .  S
O445       Cr460   1.996       .  S
O445        C446   1.258       .  A
C446        O447   1.256       .  A
C446        C470   1.451       .  S
O447       Cr461   1.988       .  S
O448       Cr461   1.970       .  S
O448        C449   1.253       .  A
C449        C474   1.428       .  S
O450       Cr459   1.984       .  S
O450        C458   1.256       .  A
O451       Cr459   1.986       .  S
O451        C452   1.256       .  A
C452        O453   1.259       .  A
C452        C477   1.452       .  S
O453       Cr460   1.997       .  S
O454       Cr460   1.986       .  S
O454        C455   1.257       .  A
C455        O456   1.254       .  A
C455        C475   1.438       .  S
O456       Cr461   1.976       .  S
O457       Cr461   1.985       .  S
O457        C458   1.256       .  A
C458        C480   1.442       .  S
Cr459       O462   1.828       .  S
Cr460       O462   1.827       .  S
Cr461       O462   1.830       .  S
C463        C466   1.527       .  S
C463        C469   1.485       .  S
C463        C712   1.461       .  S
C464        C465   1.521       .  S
C464        C476   1.477       .  S
C464        C718   1.446       .  S
C466        H708   1.088       .  S
C469        C470   1.216       .  T
C471        C472   1.216       .  T
C473        C474   1.203       .  T
C475        C476   1.209       .  T
C477        C478   1.217       .  T
C479        C480   1.211       .  T
O481       Cr499   1.978       .  S
O481        C489   1.254       .  A
O482       Cr499   1.986       .  S
O482        C483   1.256       .  A
C483        O484   1.257       .  A
C483        C511   1.446       .  S
O484       Cr500   1.987       .  S
O485       Cr500   1.979       .  S
O485        C486   1.255       .  A
C486        O487   1.257       .  A
C486        C510   1.443       .  S
O487       Cr501   1.987       .  S
O488       Cr501   1.987       .  S
O488        C489   1.257       .  A
C489        C514   1.442       .  S
O490       Cr499   1.989       .  S
O490        C498   1.256       .  A
O491       Cr499   1.966       .  S
O491        C492   1.252       .  A
C492        O493   1.252       .  A
C492        C517   1.419       .  S
O493       Cr500   1.967       .  S
O494       Cr500   1.988       .  S
O494        C495   1.256       .  A
C495        O496   1.256       .  A
C495        C515   1.444       .  S
O496       Cr501   1.985       .  S
O497       Cr501   1.986       .  S
O497        C498   1.256       .  A
C498        C520   1.445       .  S
Cr499       O502   1.829       .  S
Cr500       O502   1.829       .  S
Cr501       O502   1.825       .  S
C503        C506   1.522       .  S
C503        C509   1.478   1_455  S
C503        C673   1.483   1_445  S
C504        C505   1.525       .  S
C504        C516   1.482   1_455  S
C504        C679   1.481   1_445  S
C505        C546   1.314   1_445  D
C505        H667   1.213   1_445  S
C506        C545   1.340   1_444  D
H507        C585   1.213   1_655  S
C509        C510   1.212       .  T
C511        C512   1.213       .  T
C513        C583   1.478   1_655  S
C513        C514   1.211       .  T
C515        C516   1.212       .  T
C517        C518   1.199       .  T
C519        C584   1.483   1_655  S
C519        C520   1.213       .  T
O521       Cr539   1.960       .  S
O521        C529   1.251       .  A
O522       Cr539   1.984       .  S
O522        C523   1.255       .  A
C523        O524   1.255       .  A
C523        C551   1.445       .  S
O524       Cr540   1.985       .  S
O525       Cr540   1.961       .  S
O525        C526   1.251       .  A
C526        O527   1.253       .  A
C526        C550   1.421       .  S
O527       Cr541   1.969       .  S
O528       Cr541   1.969       .  S
O528        C529   1.253       .  A
C529        C554   1.421       .  S
O530       Cr539   1.980       .  S
O530        C538   1.254       .  A
O531       Cr539   1.959       .  S
O531        C532   1.251       .  A
C532        O533   1.251       .  A
C532        C557   1.412       .  S
O533       Cr540   1.960       .  S
O534       Cr540   1.980       .  S
O534        C535   1.255       .  A
C535        O536   1.252       .  A
C535        C555   1.432       .  S
O536       Cr541   1.970       .  S
O537       Cr541   1.970       .  S
O537        C538   1.252       .  A
C538        C560   1.432       .  S
Cr539       O542   1.825       .  S
Cr540       O542   1.825       .  S
Cr541       O542   1.826       .  S
C543        C546   1.525       .  S
C543        C549   1.456   1_565  S
C543        C713   1.457       .  S
C544        C545   1.522       .  S
C544        C556   1.466   1_565  S
C544        C719   1.462       .  S
C545        H707   1.088       .  S
H547        C625   1.088       .  S
C549        C550   1.200       .  T
C551        C552   1.213       .  T
C553        C623   1.455       .  S
C553        C554   1.200       .  T
C555        C556   1.205       .  T
C557        C558   1.195       .  T
C559        C624   1.466       .  S
C559        C560   1.205       .  T
O561       Cr579   1.996       .  S
O561        C569   1.258       .  A
O562       Cr579   1.968       .  S
O562        C563   1.253       .  A
C563        O564   1.253       .  A
C563        C591   1.421       .  S
O564       Cr580   1.967       .  S
O565       Cr580   1.997       .  S
O565        C566   1.259       .  A
C566        O567   1.256       .  A
C566        C590   1.450       .  S
O567       Cr581   1.987       .  S
O568       Cr581   1.986       .  S
O568        C569   1.256       .  A
C569        C594   1.449       .  S
O570       Cr579   1.976       .  S
O570        C578   1.254       .  A
O571       Cr579   1.995       .  S
O571        C572   1.258       .  A
C572        O573   1.259       .  A
C572        C597   1.457       .  S
O573       Cr580   1.996       .  S
O574       Cr580   1.976       .  S
O574        C575   1.254       .  A
C575        O576   1.256       .  A
C575        C595   1.439       .  S
O576       Cr581   1.985       .  S
O577       Cr581   1.985       .  S
O577        C578   1.256       .  A
C578        C600   1.439       .  S
Cr579       O582   1.829       .  S
Cr580       O582   1.829       .  S
Cr581       O582   1.827       .  S
C583        C586   1.521       .  S
C583        C589   1.484   1_455  S
C584        C585   1.526       .  S
C584        C596   1.478   1_455  S
C585        C626   1.315   1_455  D
C586        C625   1.340   1_454  D
H587        C665   1.213   1_655  S
C589        C590   1.216       .  T
C591        C592   1.200       .  T
C593        C663   1.483   1_655  S
C593        C594   1.215       .  T
C595        C596   1.210       .  T
C597        C598   1.220       .  T
C599        C664   1.479   1_655  S
C599        C600   1.210       .  T
O601       Cr619   1.978       .  S
O601        C609   1.254       .  A
O602       Cr619   1.967       .  S
O602        C603   1.252       .  A
C603        O604   1.252       .  A
C603        C631   1.422       .  S
O604       Cr620   1.967       .  S
O605       Cr620   1.978       .  S
O605        C606   1.254       .  A
C606        O607   1.252       .  A
C606        C630   1.428       .  S
O607       Cr621   1.968       .  S
O608       Cr621   1.968       .  S
O608        C609   1.252       .  A
C609        C634   1.428       .  S
O610       Cr619   1.969       .  S
O610        C618   1.253       .  A
O611       Cr619   1.987       .  S
O611        C612   1.257       .  A
C612        O613   1.257       .  A
C612        C637   1.448       .  S
O613       Cr620   1.987       .  S
O614       Cr620   1.968       .  S
O614        C615   1.253       .  A
C615        O616   1.253       .  A
C615        C635   1.426       .  S
O616       Cr621   1.969       .  S
O617       Cr621   1.970       .  S
O617        C618   1.253       .  A
C618        C640   1.427       .  S
Cr619       O622   1.825       .  S
Cr620       O622   1.825       .  S
Cr621       O622   1.828       .  S
C623        C626   1.527       .  S
C623        C629   1.461       .  S
C624        C625   1.521       .  S
C624        C636   1.461       .  S
H627        C705   1.088       .  S
C629        C630   1.203       .  T
C631        C632   1.200       .  T
C633        C703   1.461       .  S
C633        C634   1.203       .  T
C635        C636   1.202       .  T
C637        C638   1.215       .  T
C639        C704   1.462       .  S
C639        C640   1.203       .  T
O641       Cr659   1.995       .  S
O641        C649   1.258       .  A
O642       Cr659   1.987       .  S
O642        C643   1.257       .  A
C643        O644   1.257       .  A
C643        C671   1.445       .  S
O644       Cr660   1.987       .  S
O645       Cr660   1.994       .  S
O645        C646   1.258       .  A
C646        O647   1.256       .  A
C646        C670   1.448       .  S
O647       Cr661   1.985       .  S
O648       Cr661   1.986       .  S
O648        C649   1.256       .  A
C649        C674   1.449       .  S
O650       Cr659   1.985       .  S
O650        C658   1.256       .  A
O651       Cr659   1.997       .  S
O651        C652   1.259       .  A
C652        O653   1.259       .  A
C652        C677   1.457       .  S
O653       Cr660   1.997       .  S
O654       Cr660   1.987       .  S
O654        C655   1.257       .  A
C655        O656   1.256       .  A
C655        C675   1.444       .  S
O656       Cr661   1.985       .  S
O657       Cr661   1.984       .  S
O657        C658   1.256       .  A
C658        C680   1.442       .  S
Cr659       O662   1.829       .  S
Cr660       O662   1.829       .  S
Cr661       O662   1.829       .  S
C663        C666   1.523       .  S
C663        C669   1.482   1_455  S
C664        C665   1.526       .  S
C664        C676   1.482   1_455  S
C665        C706   1.315   1_455  D
C666        C705   1.339   1_454  D
C669        C670   1.215       .  T
C671        C672   1.213       .  T
C673        C674   1.215       .  T
C675        C676   1.212       .  T
C677        C678   1.220       .  T
C679        C680   1.211       .  T
O681       Cr699   1.962       .  S
O681        C689   1.251       .  A
O682       Cr699   1.965       .  S
O682        C683   1.251       .  A
C683        O684   1.251       .  A
C683        C711   1.422       .  S
O684       Cr700   1.966       .  S
O685       Cr700   1.963       .  S
O685        C686   1.251       .  A
C686        O687   1.253       .  A
C686        C710   1.422       .  S
O687       Cr701   1.970       .  S
O688       Cr701   1.970       .  S
O688        C689   1.253       .  A
C689        C714   1.422       .  S
O690       Cr699   1.969       .  S
O690        C698   1.252       .  A
O691       Cr699   1.958       .  S
O691        C692   1.251       .  A
C692        O693   1.251       .  A
C692        C717   1.412       .  S
O693       Cr700   1.958       .  S
O694       Cr700   1.970       .  S
O694        C695   1.252       .  A
C695        O696   1.252       .  A
C695        C715   1.428       .  S
O696       Cr701   1.970       .  S
O697       Cr701   1.970       .  S
O697        C698   1.252       .  A
C698        C720   1.427       .  S
Cr699       O702   1.824       .  S
Cr700       O702   1.825       .  S
Cr701       O702   1.824       .  S
C703        C706   1.527       .  S
C703        C709   1.456       .  S
C704        C705   1.522       .  S
C704        C716   1.463       .  S
C709        C710   1.200       .  T
C711        C712   1.200       .  T
C713        C714   1.200       .  T
C715        C716   1.203       .  T
C717        C718   1.195       .  T
C719        C720   1.203       .  T
