geometry optimzed in LAMMPS
_audit_creation_date              2020-12-01 
_audit_creation_method            'lammps2cif' 
_symmetry_space_group_name_H-M    'P1' 
_symmetry_Int_Tables_number       1 
_symmetry_cell_setting            triclinic 
loop_ 
_symmetry_equiv_pos_as_xyz 
  x,y,z 
_cell_length_a                    48.51326767 
_cell_length_b                    48.35089399127284 
_cell_length_c                    25.40764820596408 
_cell_angle_alpha                 90.04855802438492 
_cell_angle_beta                  89.93617379658538 
_cell_angle_gamma                 120.20782739654679 
loop_ 
_atom_site_label 
_atom_site_type_symbol 
_atom_site_fract_x 
_atom_site_fract_y 
_atom_site_fract_z 
_atom_site_charge 
Zn1        Zn  0.33386628  0.16673499  0.82839754     1.49700
Zn2        Zn  0.37305669  0.20336163  0.72559229     1.49400
Zn3        Zn  0.32945952  0.12711500  0.72499045     1.49100
Zn4        Zn  0.29706188  0.17060763  0.72701655     1.49500
O5          O  0.33334669  0.16694145  0.75145456    -1.84400
O6          O  0.37138953  0.20708306  0.85662417    -0.75000
O7          O  0.39918494  0.18906829  0.68309427    -0.74800
O8          O  0.33187162  0.10063010  0.78417219    -0.74400
O9          O  0.39907953  0.23248353  0.78520112    -0.75000
O10         O  0.33668894  0.12916949  0.85582063    -0.74600
O11         O  0.36652961  0.13648547  0.67863707    -0.75200
O12         O  0.26892174  0.13373304  0.68039279    -0.74600
O13         O  0.36361731  0.23080080  0.67903630    -0.75400
O14         O  0.28896202  0.10135374  0.68233920    -0.74800
O15         O  0.31133055  0.21120416  0.68465767    -0.75200
O16         O  0.26884908  0.16765649  0.78775069    -0.75100
O17         O  0.29384392  0.16357654  0.85802902    -0.74900
C18         C  0.39505224  0.23096521  0.83488313     0.76900
C19         C  0.39268230  0.16148722  0.66672401     0.77400
C20         C  0.33553207  0.10496242  0.83370208     0.76300
C21         C  0.26779688  0.10782265  0.66705405     0.76700
C22         C  0.33877011  0.23208528  0.66756845     0.77800
C23         C  0.27028356  0.16415965  0.83718236     0.76900
C24         C  0.47087637  0.49911861  0.99479337     0.80000
N25         N  0.99863692  0.02759478  0.99321230    -0.78300
C26         C  0.02704497  0.02844693  0.99362743     0.82400
N27         N  0.02771473  0.00071089  0.99573893    -0.78300
C28         C  0.49997264  0.47218239  0.99735089     0.82500
N29         N  0.47159360  0.47141436  0.99687094    -0.80000
C30         C  0.35386046  0.01784214  0.96352749     0.80000
N31         N  0.33024888  0.99791330  0.99665150    -0.78300
C32         C  0.33420414  0.47795979  0.02904675     0.82400
N33         N  0.36234291  0.47818539  0.02866344    -0.78300
C34         C  0.38608677  0.99786418  0.99524310     0.82500
N35         N  0.38176521  0.01759631  0.96254342    -0.80000
C36         C  0.14448262  0.16360016  0.03469522     0.80000
N37         N  0.11545048  0.13668615  0.02974605    -0.78300
C38         C  0.11143011  0.11326618  0.99572385     0.82400
N39         N  0.13624541  0.11714020  0.96554239    -0.78300
C40         C  0.16532145  0.14404708  0.97021957     0.82500
N41         N  0.16938078  0.16699281  0.00531460    -0.80000
C42         C  0.01927653  0.35521856  0.03615140     0.80000
N43         N  0.99979828  0.33152324  0.00268879    -0.78300
C44         C  0.48062550  0.33566563  0.96875976     0.82400
N45         N  0.48119723  0.36407217  0.96802333    -0.78300
C46         C  0.00045209  0.38788992  0.00169195     0.82500
N47         N  0.01940576  0.38341873  0.03589211    -0.80000
Zn48       Zn  0.12756495  0.32978623  0.27578199     1.49700
Zn49       Zn  0.16512806  0.33231337  0.17253062     1.49400
Zn50       Zn  0.20322791  0.37383075  0.27299906     1.49100
Zn51       Zn  0.17183671  0.29789986  0.27369792     1.49500
O52         O  0.16697800  0.33349236  0.24899732    -1.84400
O53         O  0.10074846  0.33262926  0.21765016    -0.75000
O54         O  0.20596246  0.36823568  0.14219583    -0.74800
O55         O  0.18902862  0.40081174  0.31336454    -0.74400
O56         O  0.12879166  0.33698303  0.14582156    -0.75000
O57         O  0.13710176  0.36675197  0.32225926    -0.74600
O58         O  0.23147523  0.39808109  0.21193999    -0.75200
O59         O  0.21177640  0.31333994  0.31741858    -0.74600
O60         O  0.15848432  0.29027170  0.14526306    -0.75400
O61         O  0.23117396  0.36581755  0.32092567    -0.74800
O62         O  0.17157976  0.27037803  0.21342310    -0.75200
O63         O  0.13440186  0.26880341  0.31914417    -0.75100
O64         O  0.10227048  0.28914699  0.31770857    -0.74900
C65         C  0.10498267  0.33633614  0.16813134     0.76900
C66         C  0.22986558  0.39251489  0.16271140     0.77400
C67         C  0.16174443  0.39370279  0.33166422     0.76300
C68         C  0.23247484  0.34107866  0.33378602     0.76700
C69         C  0.16335809  0.26902309  0.16546932     0.77800
C70         C  0.10855952  0.26772696  0.33249082     0.76900
C71         C  0.02829561  0.00018581  0.50079021     0.80000
N72         N  0.02877697  0.02849099  0.50228788    -0.78300
C73         C  0.00100637  0.02887704  0.50389020     0.82400
N74         N  0.47266220  0.50091632  0.50391318    -0.78300
C75         C  0.47213267  0.47259301  0.50242142     0.82500
N76         N  0.49992640  0.47222054  0.50083120    -0.80000
C77         C  0.14497192  0.48114315  0.46487075     0.80000
N78         N  0.11674587  0.48075997  0.46551028    -0.78300
C79         C  0.11253185  0.50054806  0.49812653     0.82400
N80         N  0.13657412  0.02072936  0.53051402    -0.78300
C81         C  0.16484000  0.02118864  0.53050776     0.82500
N82         N  0.16880804  0.50137300  0.49750953    -0.80000
C83         C  0.48105952  0.14562136  0.53454352     0.80000
N84         N  0.50110903  0.16929135  0.50132513    -0.78300
C85         C  0.02145611  0.16530687  0.46964396     0.82400
N86         N  0.02166123  0.13731528  0.47146673    -0.78300
C87         C  0.50170276  0.11355245  0.50435217     0.82500
N88         N  0.48142968  0.11768484  0.53571257    -0.80000
C89         C  0.35480487  0.33608614  0.53412815     0.80000
N90         N  0.38296553  0.36425763  0.53407809    -0.78300
C91         C  0.38705423  0.38869492  0.50267571     0.82400
N92         N  0.36298615  0.38504724  0.47096475    -0.78300
C93         C  0.33475754  0.35694332  0.47038098     0.82500
N94         N  0.33085587  0.33260751  0.50210058    -0.80000
C95         C  0.50169090  0.08385518  0.50526386    -0.13500
C96         C  0.50150465  0.05881905  0.50505261    -0.15100
C97         C  0.08265387  0.50003803  0.49860230    -0.13500
C98         C  0.05769190  0.49986063  0.49935966    -0.15100
C99         C  0.44216122  0.44305611  0.50255642    -0.13500
C100        C  0.41696079  0.41828935  0.50265390    -0.15100
C101        C  0.05956939  0.24175741  0.38919104    -0.13600
C102        C  0.08562308  0.24111892  0.36629240     0.08500
C103        C  0.08999977  0.21505036  0.37685976    -0.13600
C104        C  0.06897352  0.19031286  0.40991767    -0.13600
C105        C  0.04324225  0.19120058  0.43358875     0.08500
C106        C  0.03869134  0.21713688  0.42270932    -0.13600
H107        H  0.05554749  0.26150661  0.38181575     0.12500
H108        H  0.10977054  0.21376821  0.35969239     0.12500
H109        H  0.07318401  0.17070620  0.41748937     0.12500
H110        H  0.01896872  0.21842786  0.44005353     0.12500
C111        C  0.18447059  0.44311086  0.38785281    -0.13600
C112        C  0.15802621  0.41691748  0.36439142     0.08500
C113        C  0.12745400  0.41253107  0.37316756    -0.13600
C114        C  0.12331763  0.43363883  0.40510570    -0.13600
C115        C  0.14961914  0.45946217  0.42953979     0.08500
C116        C  0.18028302  0.46406920  0.42042385    -0.13600
H117        H  0.20829386  0.44707479  0.38179366     0.12500
H118        H  0.10659807  0.39269033  0.35532363     0.12500
H119        H  0.09940007  0.42938326  0.41128169     0.12500
H120        H  0.20107406  0.48386954  0.43846612     0.12500
C121        C  0.28485674  0.37553377  0.37833768    -0.13600
C122        C  0.25867014  0.34491477  0.36840639     0.08500
C123        C  0.25775160  0.31823474  0.39211426    -0.13600
C124        C  0.28236139  0.32214125  0.42547487    -0.13600
C125        C  0.30858422  0.35277563  0.43530786     0.08500
C126        C  0.30960141  0.37940196  0.41118782    -0.13600
H127        H  0.28634569  0.39657716  0.36048691     0.12500
H128        H  0.23786271  0.29435650  0.38531309     0.12500
H129        H  0.28091254  0.30111284  0.44329987     0.12500
H130        H  0.32941230  0.40332199  0.41798712     0.12500
C131        C  0.07539695  0.32806807  0.08424491    -0.13600
C132        C  0.08213037  0.34036649  0.13558326     0.08500
C133        C  0.06789373  0.35755693  0.15452006    -0.13600
C134        C  0.04776796  0.36296425  0.12200706    -0.13600
C135        C  0.04086102  0.35037350  0.07078236     0.08500
C136        C  0.05458284  0.33260842  0.05244382    -0.13600
H137        H  0.08609040  0.31473477  0.06884186     0.12500
H138        H  0.07297566  0.36746122  0.19392066     0.13900
H139        H  0.03729950  0.37658450  0.13702613     0.12500
H140        H  0.04968369  0.32273888  0.01301376     0.12500
C141        C  0.13165453  0.22633653  0.10005137    -0.13600
C142        C  0.15853746  0.24180383  0.13276280     0.08500
C143        C  0.18037775  0.23085607  0.13421595    -0.13600
C144        C  0.17585377  0.20535541  0.10214319    -0.13600
C145        C  0.14878110  0.18969432  0.06984735     0.08500
C146        C  0.12652516  0.20011361  0.06950484    -0.13600
H147        H  0.11442430  0.23432056  0.09866936     0.12500
H148        H  0.20124819  0.24249156  0.15922905     0.12500
H149        H  0.19331843  0.19766511  0.10282849     0.12500
H150        H  0.10564885  0.18852332  0.04449057     0.12500
C151        C  0.25083110  0.42091098  0.07740526    -0.13600
C152        C  0.25658719  0.41449629  0.12875945     0.08500
C153        C  0.28813245  0.42884440  0.14718621    -0.13600
C154        C  0.31358720  0.44901233  0.11441163    -0.13600
C155        C  0.30774633  0.45587469  0.06338070     0.08500
C156        C  0.27617362  0.44183658  0.04527958    -0.13600
H157        H  0.22669841  0.41011840  0.06244244     0.12500
H158        H  0.29309323  0.42401197  0.18660975     0.12500
H159        H  0.33774515  0.45971194  0.12921091     0.12500
H160        H  0.27113840  0.44672123  0.00594204     0.12500
C161        C  0.08127954  0.08387287  0.99314154    -0.13500
C162        C  0.05640034  0.05870703  0.99269336    -0.15100
C163        C  0.00065611  0.44276258  0.99949055    -0.13500
C164        C  0.00080666  0.41785216  0.00086928    -0.15100
C165        C  0.41580267  0.99796636  0.99472460    -0.13500
C166        C  0.44086249  0.99828766  0.99458402    -0.15100
C167        C  0.41267469  0.12763944  0.62681882    -0.13600
C168        C  0.41577812  0.15794760  0.63341924     0.08500
C169        C  0.44077767  0.18437361  0.60762646    -0.13600
C170        C  0.46196821  0.18043320  0.57533574    -0.13600
C171        C  0.45881275  0.15005610  0.56878132     0.08500
C172        C  0.43401599  0.12377225  0.59515937    -0.13600
H173        H  0.39376735  0.10681156  0.64638984     0.12500
H174        H  0.44371348  0.20799912  0.61186885     0.12500
H175        H  0.48088176  0.20120876  0.55568686     0.12500
H176        H  0.43083464  0.10004791  0.59098603     0.12500
C177        C  0.32770640  0.07540854  0.91795999    -0.13600
C178        C  0.33932866  0.08185360  0.86618306     0.08500
C179        C  0.35575351  0.06702875  0.84638185    -0.13600
C180        C  0.36105346  0.04658862  0.87829768    -0.13600
C181        C  0.34912554  0.03991509  0.92988216     0.08500
C182        C  0.33212313  0.05421708  0.94925243    -0.13600
H183        H  0.31499588  0.08658025  0.93404979     0.12500
H184        H  0.36514787  0.07186922  0.80665629     0.12500
H185        H  0.37404829  0.03564893  0.86249439     0.12500
H186        H  0.32276793  0.04945732  0.98900724     0.12500
C187        C  0.44591128  0.27729796  0.95111001    -0.13600
C188        C  0.45905806  0.30908221  0.93386894     0.08500
C189        C  0.45159287  0.31500512  0.88328695    -0.13600
C190        C  0.43152348  0.28950328  0.85034955    -0.13600
C191        C  0.41786948  0.25776679  0.86813171     0.08500
C192        C  0.42512570  0.25190195  0.91885148    -0.13600
H193        H  0.45122739  0.27210264  0.99002295     0.12500
H194        H  0.46157937  0.33929528  0.86904003     0.12500
H195        H  0.42602839  0.29458388  0.81148718     0.12500
H196        H  0.41486572  0.22763775  0.93339115     0.12500
C197        C  0.21481556  0.08905105  0.62450273    -0.13600
C198        C  0.24126763  0.08508338  0.63298243     0.08500
C199        C  0.24221774  0.05966829  0.60796152    -0.13600
C200        C  0.21743438  0.03894601  0.57459069    -0.13600
C201        C  0.19101723  0.04299256  0.56605227     0.08500
C202        C  0.18991953  0.06816453  0.59165712    -0.13600
H203        H  0.21328848  0.10833703  0.64334694     0.12500
H204        H  0.26229280  0.05603148  0.61363210     0.12500
H205        H  0.21894244  0.01968247  0.55563161     0.12500
H206        H  0.16997868  0.07200074  0.58588636     0.12500
C207        C  0.37672509  0.31051612  0.59338073    -0.13600
C208        C  0.35036560  0.30941480  0.56849358     0.08500
C209        C  0.31987650  0.28262745  0.57676707    -0.13600
C210        C  0.31588835  0.25756168  0.60941366    -0.13600
C211        C  0.34236258  0.25863542  0.63385622     0.08500
C212        C  0.37279324  0.28537746  0.62542299    -0.13600
H213        H  0.40053457  0.33070510  0.58777815     0.12500
H214        H  0.29904966  0.28108683  0.55826698     0.12500
H215        H  0.29217108  0.23722127  0.61505764     0.12500
H216        H  0.39368245  0.28699861  0.64383682     0.12500
C217        C  0.21228078  0.14399900  0.85136529    -0.13600
C218        C  0.24359967  0.15973073  0.87097101     0.08500
C219        C  0.24897322  0.17001619  0.92358967    -0.13600
C220        C  0.22350421  0.16510103  0.95580297    -0.13600
C221        C  0.19214424  0.14891204  0.93642010     0.08500
C222        C  0.18671974  0.13823316  0.88403707    -0.13600
H223        H  0.20750508  0.13557628  0.81105534     0.12500
H224        H  0.27290531  0.18214676  0.93960859     0.12500
H225        H  0.22824616  0.17354330  0.99610354     0.12500
H226        H  0.16276588  0.12593118  0.86811180     0.12500
Zn227      Zn  0.33382877  0.66672836  0.82838361     1.49700
Zn228      Zn  0.37302730  0.70335837  0.72560642     1.49400
Zn229      Zn  0.32940581  0.62711616  0.72494671     1.49100
Zn230      Zn  0.29702809  0.67062288  0.72701665     1.49500
O231        O  0.33330696  0.66694233  0.75144238    -1.84400
O232        O  0.37136014  0.70706308  0.85663934    -0.75000
O233        O  0.39914533  0.68906378  0.68308566    -0.74800
O234        O  0.33179625  0.60060966  0.78411412    -0.74400
O235        O  0.39905900  0.73246218  0.78522426    -0.75000
O236        O  0.33663355  0.62915078  0.85577148    -0.74600
O237        O  0.36647940  0.63648411  0.67859804    -0.75200
O238        O  0.26888789  0.63377311  0.68033536    -0.74600
O239        O  0.36360329  0.73082103  0.67909305    -0.75400
O240        O  0.28891248  0.60138051  0.68227137    -0.74800
O241        O  0.31131879  0.71124217  0.68472182    -0.75200
O242        O  0.26881165  0.66765587  0.78775852    -0.75100
O243        O  0.29381110  0.66357153  0.85802566    -0.74900
C244        C  0.39503102  0.73094076  0.83490567     0.76900
C245        C  0.39263696  0.66148432  0.66669815     0.77400
C246        C  0.33546047  0.60493861  0.83364461     0.76300
C247        C  0.26775781  0.60786260  0.66697772     0.76700
C248        C  0.33876257  0.73212183  0.66764651     0.77800
C249        C  0.27024887  0.66415509  0.83718858     0.76900
C250        C  0.47092307  0.99908506  0.99475943     0.80000
N251        N  0.99859287  0.52762579  0.99323218    -0.78300
C252        C  0.02699835  0.52847246  0.99364155     0.82400
N253        N  0.02766290  0.50073406  0.99576087    -0.78300
C254        C  0.50002678  0.97215629  0.99731498     0.82500
N255        N  0.47164528  0.97138322  0.99682938    -0.80000
C256        C  0.35379446  0.51784016  0.96350612     0.80000
N257        N  0.33018589  0.49791338  0.99663546    -0.78300
C258        C  0.33425823  0.97794567  0.02904333     0.82400
N259        N  0.36239107  0.97815918  0.02864567    -0.78300
C260        C  0.38603616  0.49788909  0.99525632     0.82500
N261        N  0.38170576  0.51760715  0.96253669    -0.80000
C262        C  0.14446932  0.66358846  0.03475318     0.80000
N263        N  0.11543016  0.63668615  0.02978317    -0.78300
C264        C  0.11140010  0.61327214  0.99574008     0.82400
N265        N  0.13621317  0.61714112  0.96555753    -0.78300
C266        C  0.16529639  0.64403656  0.97025594     0.82500
N267        N  0.16936515  0.66697584  0.00537203    -0.80000
C268        C  0.01929373  0.85517196  0.03617731     0.80000
N269        N  0.99980763  0.83147461  0.00272247    -0.78300
C270        C  0.48064400  0.83562401  0.96878165     0.82400
N271        N  0.48123253  0.86403859  0.96802704    -0.78300
C272        C  0.00049433  0.88785794  0.00168668     0.82500
N273        N  0.01943918  0.88338044  0.03589723    -0.80000
Zn274      Zn  0.12761741  0.82979294  0.27582357     1.49700
Zn275      Zn  0.16517301  0.83231807  0.17256873     1.49400
Zn276      Zn  0.20328521  0.87384112  0.27301424     1.49100
Zn277      Zn  0.17188671  0.79790899  0.27376086     1.49500
O278        O  0.16702979  0.83349959  0.24903592    -1.84400
O279        O  0.10078783  0.83261887  0.21769529    -0.75000
O280        O  0.20600553  0.86823687  0.14221015    -0.74800
O281        O  0.18908991  0.90082889  0.31336393    -0.74400
O282        O  0.12882670  0.83697454  0.14586003    -0.75000
O283        O  0.13716328  0.86677013  0.32227364    -0.74600
O284        O  0.23153075  0.89808180  0.21194631    -0.75200
O285        O  0.21183403  0.81335612  0.31746480    -0.74600
O286        O  0.15852602  0.79027253  0.14532676    -0.75400
O287        O  0.23123328  0.86583479  0.32094417    -0.74800
O288        O  0.17161356  0.77037546  0.21349399    -0.75200
O289        O  0.13445961  0.76882087  0.31923719    -0.75100
O290        O  0.10232868  0.78916392  0.31778165    -0.74900
C291        C  0.10501533  0.83632022  0.16817469     0.76900
C292        C  0.22991496  0.89251360  0.16271815     0.77400
C293        C  0.16180674  0.89372291  0.33166431     0.76300
C294        C  0.23253455  0.84109802  0.33381697     0.76700
C295        C  0.16339056  0.76901958  0.16554055     0.77800
C296        C  0.10861876  0.76774792  0.33258376     0.76900
C297        C  0.02822857  0.50016893  0.50073756     0.80000
N298        N  0.02870695  0.52847246  0.50223576    -0.78300
C299        C  0.00093563  0.52885671  0.50384312     0.82400
N300        N  0.47273241  0.00093839  0.50395408    -0.78300
C301        C  0.47220054  0.97261456  0.50246310     0.82500
N302        N  0.49999237  0.97223885  0.50087830    -0.80000
C303        C  0.14503398  0.98115902  0.46487098     0.80000
N304        N  0.11680867  0.98077734  0.46551414    -0.78300
C305        C  0.11258954  0.00054937  0.49816081     0.82400
N306        N  0.13652380  0.52074793  0.53045224    -0.78300
C307        C  0.16479081  0.52120883  0.53044991     0.82500
N308        N  0.16886376  0.00137044  0.49753582    -0.80000
C309        C  0.48104297  0.64563328  0.53456202     0.80000
N310        N  0.50112202  0.66931682  0.50138878    -0.78300
C311        C  0.02147906  0.66533473  0.46972774     0.82400
N312        N  0.02166340  0.63733186  0.47152485    -0.78300
C313        C  0.50167474  0.61355539  0.50436365     0.82500
N314        N  0.48139281  0.61768596  0.53570370    -0.80000
C315        C  0.35484442  0.83614221  0.53423142     0.80000
N316        N  0.38301107  0.86430656  0.53416505    -0.78300
C317        C  0.38711034  0.88873549  0.50273202     0.82400
N318        N  0.36304729  0.88508689  0.47100697    -0.78300
C319        C  0.33481280  0.85698898  0.47044065     0.82500
N320        N  0.33090105  0.83266198  0.50219011    -0.80000
C321        C  0.50163806  0.58384471  0.50524459    -0.13500
C322        C  0.50143559  0.55880013  0.50501576    -0.15100
C323        C  0.08271435  0.00004377  0.49864224    -0.13500
C324        C  0.05775619  0.99987325  0.49940801    -0.15100
C325        C  0.44222803  0.94308149  0.50259351    -0.13500
C326        C  0.41702285  0.91832134  0.50269452    -0.15100
C327        C  0.05962001  0.74178484  0.38926880    -0.13600
C328        C  0.08568386  0.74114888  0.36640559     0.08500
C329        C  0.09006738  0.71508927  0.37701988    -0.13600
C330        C  0.06903382  0.69035506  0.41007806    -0.13600
C331        C  0.04328765  0.69123688  0.43370285     0.08500
C332        C  0.03873502  0.71716817  0.42278776    -0.13600
H333        H  0.05559278  0.76152721  0.38185902     0.12500
H334        H  0.10984666  0.71380950  0.35988365     0.12500
H335        H  0.07324696  0.67075318  0.41768051     0.12500
H336        H  0.01900141  0.71845493  0.44009640     0.12500
C337        C  0.18453640  0.94314573  0.38781597    -0.13600
C338        C  0.15809015  0.91694274  0.36437788     0.08500
C339        C  0.12751668  0.91255003  0.37316781    -0.13600
C340        C  0.12338030  0.93365816  0.40510364    -0.13600
C341        C  0.14968316  0.95948786  0.42952156     0.08500
C342        C  0.18034886  0.96410462  0.42038528    -0.13600
H343        H  0.20836101  0.94711563  0.38174383     0.12500
H344        H  0.10665913  0.89270211  0.35534108     0.12500
H345        H  0.09946159  0.92939549  0.41129648     0.12500
H346        H  0.20114022  0.98391053  0.43841494     0.12500
C347        C  0.28492990  0.87555935  0.37832340    -0.13600
C348        C  0.25873154  0.84494047  0.36843710     0.08500
C349        C  0.25780062  0.81826751  0.39219567    -0.13600
C350        C  0.28240943  0.82218116  0.42556406    -0.13600
C351        C  0.30864340  0.85281548  0.43535427     0.08500
C352        C  0.30967384  0.87943432  0.41118146    -0.13600
H353        H  0.28642815  0.89659708  0.36043174     0.12500
H354        H  0.23790167  0.79438953  0.38543040     0.12500
H355        H  0.28095031  0.80115839  0.44343069     0.12500
H356        H  0.32949386  0.90335373  0.41794691     0.12500
C357        C  0.07537701  0.82798457  0.08432686    -0.13600
C358        C  0.08215182  0.84033491  0.13563063     0.08500
C359        C  0.06794773  0.85756307  0.15453253    -0.13600
C360        C  0.04781708  0.86296055  0.12201442    -0.13600
C361        C  0.04087129  0.85032193  0.07082136     0.08500
C362        C  0.05455702  0.83251510  0.05252291    -0.13600
H363        H  0.08604491  0.81462118  0.06895313     0.12500
H364        H  0.07306175  0.86750667  0.19390658     0.13900
H365        H  0.03737788  0.87661406  0.13700400     0.12500
H366        H  0.04962850  0.82260768  0.01311837     0.12500
C367        C  0.13167063  0.72633567  0.10013277    -0.13600
C368        C  0.15855549  0.74179331  0.13284171     0.08500
C369        C  0.18038460  0.73083178  0.13429404    -0.13600
C370        C  0.17584940  0.70532854  0.10221775    -0.13600
C371        C  0.14877653  0.68967959  0.06991961     0.08500
C372        C  0.12653000  0.70011069  0.06958281    -0.13600
H373        H  0.11444871  0.73433041  0.09875191     0.12500
H374        H  0.20125631  0.74245994  0.15930649     0.12500
H375        H  0.19330641  0.69762842  0.10289855     0.12500
H376        H  0.10565399  0.68852973  0.04456750     0.12500
C377        C  0.25088116  0.92091320  0.07741196    -0.13600
C378        C  0.25663731  0.91448926  0.12876012     0.08500
C379        C  0.28818383  0.92882371  0.14717732    -0.13600
C380        C  0.31363920  0.94898804  0.11440036    -0.13600
C381        C  0.30779861  0.95586115  0.06337663     0.08500
C382        C  0.27622490  0.94183593  0.04528428    -0.13600
H383        H  0.22674781  0.91013084  0.06245604     0.12500
H384        H  0.29314469  0.92398408  0.18659568     0.12500
H385        H  0.33779779  0.95967734  0.12919327     0.12500
H386        H  0.27118966  0.94672848  0.00595259     0.12500
C387        C  0.08124199  0.58388857  0.99314241    -0.13500
C388        C  0.05635709  0.55872868  0.99269489    -0.15100
C389        C  0.00071461  0.94273872  0.99945759    -0.13500
C390        C  0.00086213  0.91782680  0.00084708    -0.15100
C391        C  0.41575705  0.49800161  0.99474976    -0.13500
C392        C  0.44081805  0.49832554  0.99461602    -0.15100
C393        C  0.41261658  0.62763426  0.62675490    -0.13600
C394        C  0.41573353  0.65794582  0.63339192     0.08500
C395        C  0.44075238  0.68437862  0.60764326    -0.13600
C396        C  0.46195086  0.68044275  0.57536526    -0.13600
C397        C  0.45878403  0.65006293  0.56877861     0.08500
C398        C  0.43396536  0.62377120  0.59510784    -0.13600
H399        H  0.39369387  0.60680067  0.64629035     0.12500
H400        H  0.44369955  0.70800725  0.61191408     0.12500
H401        H  0.48088037  0.70122413  0.55575375     0.12500
H402        H  0.43077403  0.60004407  0.59090798     0.12500
C403        C  0.32762077  0.57538132  0.91789740    -0.13600
C404        C  0.33924505  0.58182230  0.86612173     0.08500
C405        C  0.35567116  0.56699699  0.84632890    -0.13600
C406        C  0.36097499  0.54656402  0.87825641    -0.13600
C407        C  0.34904949  0.53989875  0.92984281     0.08500
C408        C  0.33204143  0.55419734  0.94920112    -0.13600
H409        H  0.31490943  0.58655425  0.93397988     0.12500
H410        H  0.36506675  0.57183498  0.80660392     0.12500
H411        H  0.37397362  0.53562557  0.86246274     0.12500
H412        H  0.32268767  0.54944326  0.98895693     0.12500
C413        C  0.44591457  0.77725568  0.95112784    -0.13600
C414        C  0.45906914  0.80904220  0.93389220     0.08500
C415        C  0.45160008  0.81497081  0.88331668    -0.13600
C416        C  0.43151921  0.78947364  0.85038153    -0.13600
C417        C  0.41785698  0.75773539  0.86815808     0.08500
C418        C  0.42511691  0.75186394  0.91887103    -0.13600
H419        H  0.45123292  0.77205566  0.99003574     0.12500
H420        H  0.46159102  0.83926229  0.86907343     0.12500
H421        H  0.42602184  0.79455959  0.81152437     0.12500
H422        H  0.41485073  0.72759798  0.93340587     0.12500
C423        C  0.21480802  0.58913580  0.62432179    -0.13600
C424        C  0.24123386  0.58513456  0.63288097     0.08500
C425        C  0.24215760  0.55968564  0.60793336    -0.13600
C426        C  0.21737165  0.53895741  0.57457196    -0.13600
C427        C  0.19097640  0.54303081  0.56596766     0.08500
C428        C  0.18990818  0.56824263  0.59148496    -0.13600
H429        H  0.21330223  0.60844993  0.64310262     0.12500
H430        H  0.26221138  0.55602125  0.61366312     0.12500
H431        H  0.21885720  0.51966420  0.55567955     0.12500
H432        H  0.16998547  0.57210151  0.58565680     0.12500
C433        C  0.37674319  0.81057869  0.59354274    -0.13600
C434        C  0.35039324  0.80947645  0.56861829     0.08500
C435        C  0.31990119  0.78268789  0.57686075    -0.13600
C436        C  0.31590125  0.75761674  0.60950139    -0.13600
C437        C  0.34236666  0.75868694  0.63396882     0.08500
C438        C  0.37279961  0.78543423  0.62558026    -0.13600
H439        H  0.40055396  0.83077020  0.58796737     0.12500
H440        H  0.29908169  0.78114772  0.55833319     0.12500
H441        H  0.29218253  0.73727194  0.61511326     0.12500
H442        H  0.39368152  0.78705222  0.64401892     0.12500
C443        C  0.21225140  0.64402929  0.85136858    -0.13600
C444        C  0.24356715  0.65972294  0.87098773     0.08500
C445        C  0.24893893  0.66996694  0.92362864    -0.13600
C446        C  0.22347241  0.66504937  0.95585022    -0.13600
C447        C  0.19211585  0.64889933  0.93645131     0.08500
C448        C  0.18669211  0.63826094  0.88404645    -0.13600
H449        H  0.20747600  0.63563857  0.81104146     0.12500
H450        H  0.27286826  0.68206762  0.93965949     0.12500
H451        H  0.22821303  0.67345996  0.99616855     0.12500
H452        H  0.16274065  0.62599002  0.86810978     0.12500
Zn453      Zn  0.83386623  0.16673500  0.82839755     1.49700
Zn454      Zn  0.87305666  0.20336162  0.72559230     1.49400
Zn455      Zn  0.82945949  0.12711501  0.72499046     1.49100
Zn456      Zn  0.79706191  0.17060764  0.72701655     1.49500
O457        O  0.83334673  0.16694145  0.75145461    -1.84400
O458        O  0.87138952  0.20708309  0.85662422    -0.75000
O459        O  0.89918489  0.18906830  0.68309435    -0.74800
O460        O  0.83187156  0.10063010  0.78417220    -0.74400
O461        O  0.89907947  0.23248352  0.78520110    -0.75000
O462        O  0.83668887  0.12916947  0.85582065    -0.74600
O463        O  0.86652960  0.13648552  0.67863699    -0.75200
O464        O  0.76892179  0.13373307  0.68039269    -0.74600
O465        O  0.86361724  0.23080075  0.67903633    -0.75400
O466        O  0.78896201  0.10135367  0.68233919    -0.74800
O467        O  0.81133051  0.21120415  0.68465766    -0.75200
O468        O  0.76884905  0.16765647  0.78775063    -0.75100
O469        O  0.79384379  0.16357654  0.85802902    -0.74900
C470        C  0.89505223  0.23096520  0.83488312     0.76900
C471        C  0.89268231  0.16148726  0.66672406     0.77400
C472        C  0.83553200  0.10496239  0.83370209     0.76300
C473        C  0.76779688  0.10782263  0.66705402     0.76700
C474        C  0.83877008  0.23208528  0.66756852     0.77800
C475        C  0.77028345  0.16415964  0.83718230     0.76900
C476        C  0.97087640  0.49911864  0.99479336     0.80000
N477        N  0.49863699  0.02759480  0.99321230    -0.78300
C478        C  0.52704500  0.02844693  0.99362743     0.82400
N479        N  0.52771471  0.00071088  0.99573892    -0.78300
C480        C  0.99997260  0.47218236  0.99735089     0.82500
N481        N  0.97159358  0.47141435  0.99687094    -0.80000
C482        C  0.85386046  0.01784216  0.96352749     0.80000
N483        N  0.83024888  0.99791332  0.99665146    -0.78300
C484        C  0.83420418  0.47795982  0.02904677     0.82400
N485        N  0.86234292  0.47818539  0.02866345    -0.78300
C486        C  0.88608675  0.99786418  0.99524312     0.82500
N487        N  0.88176518  0.01759631  0.96254343    -0.80000
C488        C  0.64448261  0.16360015  0.03469517     0.80000
N489        N  0.61545048  0.13668613  0.02974604    -0.78300
C490        C  0.61143011  0.11326615  0.99572391     0.82400
N491        N  0.63624540  0.11714021  0.96554237    -0.78300
C492        C  0.66532144  0.14404708  0.97021957     0.82500
N493        N  0.66938078  0.16699281  0.00531459    -0.80000
C494        C  0.51927652  0.35521857  0.03615137     0.80000
N495        N  0.49979829  0.33152324  0.00268880    -0.78300
C496        C  0.98062560  0.33566567  0.96875962     0.82400
N497        N  0.98119724  0.36407216  0.96802340    -0.78300
C498        C  0.50045199  0.38788988  0.00169203     0.82500
N499        N  0.51940575  0.38341872  0.03589205    -0.80000
Zn500      Zn  0.62756498  0.32978622  0.27578198     1.49700
Zn501      Zn  0.66512809  0.33231336  0.17253060     1.49400
Zn502      Zn  0.70322790  0.37383076  0.27299905     1.49100
Zn503      Zn  0.67183667  0.29789987  0.27369792     1.49500
O504        O  0.66697807  0.33349235  0.24899727    -1.84400
O505        O  0.60074849  0.33262926  0.21765023    -0.75000
O506        O  0.70596252  0.36823564  0.14219580    -0.74800
O507        O  0.68902865  0.40081179  0.31336460    -0.74400
O508        O  0.62879168  0.33698303  0.14582165    -0.75000
O509        O  0.63710182  0.36675196  0.32225927    -0.74600
O510        O  0.73147521  0.39808117  0.21193994    -0.75200
O511        O  0.71177638  0.31333997  0.31741873    -0.74600
O512        O  0.65848436  0.29027172  0.14526296    -0.75400
O513        O  0.73117395  0.36581758  0.32092559    -0.74800
O514        O  0.67157976  0.27037806  0.21342306    -0.75200
O515        O  0.63440185  0.26880341  0.31914414    -0.75100
O516        O  0.60227050  0.28914698  0.31770857    -0.74900
C517        C  0.60498267  0.33633611  0.16813140     0.76900
C518        C  0.72986563  0.39251487  0.16271138     0.77400
C519        C  0.66174447  0.39370279  0.33166423     0.76300
C520        C  0.73247489  0.34107871  0.33378599     0.76700
C521        C  0.66335800  0.26902304  0.16546932     0.77800
C522        C  0.60855951  0.26772694  0.33249084     0.76900
C523        C  0.52829562  0.00018580  0.50079021     0.80000
N524        N  0.52877688  0.02849096  0.50228788    -0.78300
C525        C  0.50100631  0.02887702  0.50389021     0.82400
N526        N  0.97266223  0.50091637  0.50391319    -0.78300
C527        C  0.97213267  0.47259304  0.50242142     0.82500
N528        N  0.99992636  0.47222052  0.50083121    -0.80000
C529        C  0.64497194  0.48114313  0.46487072     0.80000
N530        N  0.61674592  0.48075997  0.46551027    -0.78300
C531        C  0.61253191  0.50054807  0.49812654     0.82400
N532        N  0.63657408  0.02072936  0.53051402    -0.78300
C533        C  0.66483996  0.02118866  0.53050776     0.82500
N534        N  0.66880803  0.50137297  0.49750948    -0.80000
C535        C  0.98105950  0.14562135  0.53454353     0.80000
N536        N  0.00110901  0.16929136  0.50132517    -0.78300
C537        C  0.52145614  0.16530686  0.46964397     0.82400
N538        N  0.52166121  0.13731527  0.47146668    -0.78300
C539        C  0.00170272  0.11355244  0.50435213     0.82500
N540        N  0.98142968  0.11768483  0.53571254    -0.80000
C541        C  0.85480485  0.33608611  0.53412819     0.80000
N542        N  0.88296551  0.36425760  0.53407795    -0.78300
C543        C  0.88705420  0.38869492  0.50267568     0.82400
N544        N  0.86298616  0.38504721  0.47096467    -0.78300
C545        C  0.83475750  0.35694328  0.47038101     0.82500
N546        N  0.83085587  0.33260745  0.50210055    -0.80000
C547        C  0.00169086  0.08385520  0.50526394    -0.13500
C548        C  0.00150459  0.05881904  0.50505261    -0.15100
C549        C  0.58265389  0.50003804  0.49860230    -0.13500
C550        C  0.55769192  0.49986067  0.49935967    -0.15100
C551        C  0.94216126  0.44305614  0.50255643    -0.13500
C552        C  0.91696083  0.41828937  0.50265392    -0.15100
C553        C  0.55956937  0.24175740  0.38919110    -0.13600
C554        C  0.58562298  0.24111887  0.36629248     0.08500
C555        C  0.58999966  0.21505034  0.37685987    -0.13600
C556        C  0.56897343  0.19031282  0.40991779    -0.13600
C557        C  0.54324217  0.19120053  0.43358874     0.08500
C558        C  0.53869134  0.21713685  0.42270938    -0.13600
H559        H  0.55554767  0.26150655  0.38181592     0.12500
H560        H  0.60977007  0.21376815  0.35969242     0.12500
H561        H  0.57318400  0.17070622  0.41748924     0.12500
H562        H  0.51896863  0.21842788  0.44005347     0.12500
C563        C  0.68447060  0.44311082  0.38785276    -0.13600
C564        C  0.65802633  0.41691746  0.36439137     0.08500
C565        C  0.62745423  0.41253109  0.37316747    -0.13600
C566        C  0.62331778  0.43363885  0.40510565    -0.13600
C567        C  0.64961921  0.45946216  0.42953974     0.08500
C568        C  0.68028302  0.46406918  0.42042386    -0.13600
H569        H  0.70829397  0.44707479  0.38179373     0.12500
H570        H  0.60659829  0.39269038  0.35532355     0.12500
H571        H  0.59940051  0.42938327  0.41128170     0.12500
H572        H  0.70107385  0.48386943  0.43846591     0.12500
C573        C  0.78485685  0.37553380  0.37833777    -0.13600
C574        C  0.75867021  0.34491478  0.36840643     0.08500
C575        C  0.75775160  0.31823474  0.39211439    -0.13600
C576        C  0.78236138  0.32214121  0.42547492    -0.13600
C577        C  0.80858421  0.35277560  0.43530788     0.08500
C578        C  0.80960149  0.37940190  0.41118782    -0.13600
H579        H  0.78634598  0.39657710  0.36048684     0.12500
H580        H  0.73786264  0.29435652  0.38531338     0.12500
H581        H  0.78091248  0.30111283  0.44330005     0.12500
H582        H  0.82941262  0.40332197  0.41798690     0.12500
C583        C  0.57539699  0.32806802  0.08424489    -0.13600
C584        C  0.58213040  0.34036645  0.13558323     0.08500
C585        C  0.56789379  0.35755692  0.15452002    -0.13600
C586        C  0.54776798  0.36296432  0.12200705    -0.13600
C587        C  0.54086100  0.35037353  0.07078237     0.08500
C588        C  0.55458284  0.33260844  0.05244380    -0.13600
H589        H  0.58609044  0.31473466  0.06884200     0.12500
H590        H  0.57297597  0.36746129  0.19392052     0.13900
H591        H  0.53729952  0.37658460  0.13702614     0.12500
H592        H  0.54968363  0.32273895  0.01301373     0.12500
C593        C  0.63165472  0.22633655  0.10005142    -0.13600
C594        C  0.65853752  0.24180382  0.13276276     0.08500
C595        C  0.68037781  0.23085609  0.13421596    -0.13600
C596        C  0.67585382  0.20535537  0.10214317    -0.13600
C597        C  0.64878125  0.18969428  0.06984748     0.08500
C598        C  0.62652537  0.20011358  0.06950494    -0.13600
H599        H  0.61442466  0.23432048  0.09866920     0.12500
H600        H  0.70124792  0.24249143  0.15922896     0.12500
H601        H  0.69331859  0.19766509  0.10282853     0.12500
H602        H  0.60564933  0.18852347  0.04449086     0.12500
C603        C  0.75083120  0.42091098  0.07740531    -0.13600
C604        C  0.75658725  0.41449637  0.12875947     0.08500
C605        C  0.78813247  0.42884442  0.14718626    -0.13600
C606        C  0.81358733  0.44901241  0.11441172    -0.13600
C607        C  0.80774647  0.45587475  0.06338082     0.08500
C608        C  0.77617378  0.44183663  0.04527967    -0.13600
H609        H  0.72669875  0.41011834  0.06244235     0.12500
H610        H  0.79309301  0.42401208  0.18660975     0.12500
H611        H  0.83774532  0.45971209  0.12921113     0.12500
H612        H  0.77113862  0.44672108  0.00594220     0.12500
C613        C  0.58127953  0.08387289  0.99314153    -0.13500
C614        C  0.55640042  0.05870697  0.99269337    -0.15100
C615        C  0.50065610  0.44276259  0.99949057    -0.13500
C616        C  0.50080673  0.41785221  0.00086926    -0.15100
C617        C  0.91580265  0.99796636  0.99472460    -0.13500
C618        C  0.94086246  0.99828765  0.99458403    -0.15100
C619        C  0.91267455  0.12763935  0.62681886    -0.13600
C620        C  0.91577805  0.15794752  0.63341930     0.08500
C621        C  0.94077758  0.18437349  0.60762650    -0.13600
C622        C  0.96196812  0.18043306  0.57533581    -0.13600
C623        C  0.95881266  0.15005599  0.56878130     0.08500
C624        C  0.93401587  0.12377213  0.59515938    -0.13600
H625        H  0.89376696  0.10681145  0.64638982     0.12500
H626        H  0.94371369  0.20799896  0.61186920     0.12500
H627        H  0.98088140  0.20120859  0.55568694     0.12500
H628        H  0.93083456  0.10004782  0.59098603     0.12500
C629        C  0.82770637  0.07540848  0.91795999    -0.13600
C630        C  0.83932862  0.08185355  0.86618306     0.08500
C631        C  0.85575353  0.06702871  0.84638181    -0.13600
C632        C  0.86105346  0.04658860  0.87829763    -0.13600
C633        C  0.84912558  0.03991508  0.92988216     0.08500
C634        C  0.83212309  0.05421706  0.94925242    -0.13600
H635        H  0.81499586  0.08658021  0.93404975     0.12500
H636        H  0.86514782  0.07186922  0.80665624     0.12500
H637        H  0.87404871  0.03564900  0.86249427     0.12500
H638        H  0.82276762  0.04945722  0.98900725     0.12500
C639        C  0.94591134  0.27729797  0.95110984    -0.13600
C640        C  0.95905801  0.30908225  0.93386883     0.08500
C641        C  0.95159286  0.31500513  0.88328680    -0.13600
C642        C  0.93152345  0.28950328  0.85034944    -0.13600
C643        C  0.91786943  0.25776680  0.86813161     0.08500
C644        C  0.92512573  0.25190197  0.91885128    -0.13600
H645        H  0.95122707  0.27210270  0.99002280     0.12500
H646        H  0.96157904  0.33929534  0.86904010     0.12500
H647        H  0.92602793  0.29458387  0.81148720     0.12500
H648        H  0.91486583  0.22763776  0.93339096     0.12500
C649        C  0.71481544  0.08905113  0.62450269    -0.13600
C650        C  0.74126760  0.08508337  0.63298235     0.08500
C651        C  0.74221771  0.05966828  0.60796149    -0.13600
C652        C  0.71743426  0.03894607  0.57459069    -0.13600
C653        C  0.69101705  0.04299268  0.56605235     0.08500
C654        C  0.68991940  0.06816464  0.59165713    -0.13600
H655        H  0.71328851  0.10833713  0.64334695     0.12500
H656        H  0.76229274  0.05603133  0.61363201     0.12500
H657        H  0.71894208  0.01968255  0.55563173     0.12500
H658        H  0.66997820  0.07200089  0.58588646     0.12500
C659        C  0.87672524  0.31051613  0.59338087    -0.13600
C660        C  0.85036571  0.30941476  0.56849368     0.08500
C661        C  0.81987670  0.28262749  0.57676717    -0.13600
C662        C  0.81588860  0.25756174  0.60941380    -0.13600
C663        C  0.84236285  0.25863549  0.63385633     0.08500
C664        C  0.87279342  0.28537747  0.62542316    -0.13600
H665        H  0.90053438  0.33070510  0.58777829     0.12500
H666        H  0.79905006  0.28108671  0.55826706     0.12500
H667        H  0.79217156  0.23722144  0.61505744     0.12500
H668        H  0.89368303  0.28699864  0.64383694     0.12500
C669        C  0.71228067  0.14399897  0.85136528    -0.13600
C670        C  0.74359957  0.15973072  0.87097096     0.08500
C671        C  0.74897318  0.17001620  0.92358964    -0.13600
C672        C  0.72350419  0.16510106  0.95580294    -0.13600
C673        C  0.69214423  0.14891208  0.93642006     0.08500
C674        C  0.68671971  0.13823318  0.88403707    -0.13600
H675        H  0.70750481  0.13557627  0.81105533     0.12500
H676        H  0.77290529  0.18214677  0.93960858     0.12500
H677        H  0.72824611  0.17354330  0.99610351     0.12500
H678        H  0.66276585  0.12593119  0.86811183     0.12500
Zn679      Zn  0.83382880  0.66672835  0.82838361     1.49700
Zn680      Zn  0.87302729  0.70335837  0.72560640     1.49400
Zn681      Zn  0.82940579  0.62711615  0.72494669     1.49100
Zn682      Zn  0.79702811  0.67062288  0.72701666     1.49500
O683        O  0.83330705  0.66694233  0.75144241    -1.84400
O684        O  0.87136015  0.70706302  0.85663938    -0.75000
O685        O  0.89914528  0.68906376  0.68308583    -0.74800
O686        O  0.83179621  0.60060964  0.78411414    -0.74400
O687        O  0.89905895  0.73246216  0.78522427    -0.75000
O688        O  0.83663357  0.62915077  0.85577153    -0.74600
O689        O  0.86647939  0.63648408  0.67859803    -0.75200
O690        O  0.76888789  0.63377318  0.68033535    -0.74600
O691        O  0.86360323  0.73082101  0.67909305    -0.75400
O692        O  0.78891238  0.60138053  0.68227130    -0.74800
O693        O  0.81131874  0.71124215  0.68472184    -0.75200
O694        O  0.76881166  0.66765586  0.78775846    -0.75100
O695        O  0.79381108  0.66357153  0.85802556    -0.74900
C696        C  0.89503089  0.73094081  0.83490566     0.76900
C697        C  0.89263693  0.66148431  0.66669822     0.77400
C698        C  0.83546046  0.60493859  0.83364463     0.76300
C699        C  0.76775772  0.60786261  0.66697778     0.76700
C700        C  0.83876251  0.73212182  0.66764654     0.77800
C701        C  0.77024884  0.66415507  0.83718850     0.76900
C702        C  0.97092301  0.99908506  0.99475943     0.80000
N703        N  0.49859281  0.52762577  0.99323218    -0.78300
C704        C  0.52699836  0.52847248  0.99364155     0.82400
N705        N  0.52766297  0.50073410  0.99576087    -0.78300
C706        C  0.00002674  0.97215631  0.99731498     0.82500
N707        N  0.97164523  0.97138326  0.99682937    -0.80000
C708        C  0.85379441  0.51784015  0.96350613     0.80000
N709        N  0.83018587  0.49791338  0.99663547    -0.78300
C710        C  0.83425820  0.97794568  0.02904331     0.82400
N711        N  0.86239104  0.97815918  0.02864568    -0.78300
C712        C  0.88603612  0.49788909  0.99525632     0.82500
N713        N  0.88170569  0.51760714  0.96253671    -0.80000
C714        C  0.64446938  0.66358847  0.03475309     0.80000
N715        N  0.61543022  0.63668617  0.02978311    -0.78300
C716        C  0.61140008  0.61327214  0.99574007     0.82400
N717        N  0.63621312  0.61714105  0.96555771    -0.78300
C718        C  0.66529636  0.64403652  0.97025602     0.82500
N719        N  0.66936522  0.66697586  0.00537202    -0.80000
C720        C  0.51929378  0.85517197  0.03617727     0.80000
N721        N  0.49980769  0.83147460  0.00272242    -0.78300
C722        C  0.98064393  0.83562399  0.96878168     0.82400
N723        N  0.98123243  0.86403856  0.96802706    -0.78300
C724        C  0.50049442  0.88785796  0.00168663     0.82500
N725        N  0.51943927  0.88338046  0.03589716    -0.80000
Zn726      Zn  0.62761739  0.82979295  0.27582355     1.49700
Zn727      Zn  0.66517304  0.83231808  0.17256873     1.49400
Zn728      Zn  0.70328519  0.87384113  0.27301425     1.49100
Zn729      Zn  0.67188667  0.79790898  0.27376087     1.49500
O730        O  0.66702967  0.83349960  0.24903593    -1.84400
O731        O  0.60078785  0.83261884  0.21769530    -0.75000
O732        O  0.70600561  0.86823690  0.14221012    -0.74800
O733        O  0.68908984  0.90082891  0.31336400    -0.74400
O734        O  0.62882670  0.83697454  0.14586011    -0.75000
O735        O  0.63716330  0.86677016  0.32227355    -0.74600
O736        O  0.73153077  0.89808172  0.21194638    -0.75200
O737        O  0.71183400  0.81335613  0.31746483    -0.74600
O738        O  0.65852605  0.79027255  0.14532664    -0.75400
O739        O  0.73123322  0.86583478  0.32094424    -0.74800
O740        O  0.67161354  0.77037549  0.21349394    -0.75200
O741        O  0.63445964  0.76882080  0.31923723    -0.75100
O742        O  0.60232875  0.78916392  0.31778163    -0.74900
C743        C  0.60501535  0.83632022  0.16817473     0.76900
C744        C  0.72991500  0.89251359  0.16271820     0.77400
C745        C  0.66180670  0.89372293  0.33166437     0.76300
C746        C  0.73253451  0.84109802  0.33381705     0.76700
C747        C  0.66339044  0.76901950  0.16554052     0.77800
C748        C  0.60861884  0.76774791  0.33258384     0.76900
C749        C  0.52822857  0.50016898  0.50073756     0.80000
N750        N  0.52870691  0.52847249  0.50223576    -0.78300
C751        C  0.50093556  0.52885668  0.50384312     0.82400
N752        N  0.97273243  0.00093839  0.50395408    -0.78300
C753        C  0.97220048  0.97261454  0.50246311     0.82500
N754        N  0.99999229  0.97223887  0.50087831    -0.80000
C755        C  0.64503394  0.98115903  0.46487099     0.80000
N756        N  0.61680863  0.98077735  0.46551417    -0.78300
C757        C  0.61258950  0.00054938  0.49816082     0.82400
N758        N  0.63652388  0.52074794  0.53045226    -0.78300
C759        C  0.66479085  0.52120880  0.53044989     0.82500
N760        N  0.66886373  0.00137044  0.49753583    -0.80000
C761        C  0.98104298  0.64563326  0.53456188     0.80000
N762        N  0.00112203  0.66931683  0.50138872    -0.78300
C763        C  0.52147907  0.66533471  0.46972775     0.82400
N764        N  0.52166337  0.63733179  0.47152472    -0.78300
C765        C  0.00167475  0.61355541  0.50436368     0.82500
N766        N  0.98139282  0.61768595  0.53570366    -0.80000
C767        C  0.85484451  0.83614222  0.53423135     0.80000
N768        N  0.88301115  0.86430659  0.53416505    -0.78300
C769        C  0.88711034  0.88873552  0.50273209     0.82400
N770        N  0.86304730  0.88508688  0.47100700    -0.78300
C771        C  0.83481283  0.85698897  0.47044066     0.82500
N772        N  0.83090108  0.83266200  0.50219017    -0.80000
C773        C  0.00163808  0.58384473  0.50524466    -0.13500
C774        C  0.00143565  0.55880017  0.50501577    -0.15100
C775        C  0.58271429  0.00004376  0.49864226    -0.13500
C776        C  0.55775612  0.99987319  0.49940801    -0.15100
C777        C  0.94222807  0.94308139  0.50259351    -0.13500
C778        C  0.91702282  0.91832134  0.50269442    -0.15100
C779        C  0.55962011  0.74178489  0.38926872    -0.13600
C780        C  0.58568379  0.74114892  0.36640561     0.08500
C781        C  0.59006729  0.71508927  0.37701997    -0.13600
C782        C  0.56903374  0.69035499  0.41007810    -0.13600
C783        C  0.54328772  0.69123683  0.43370281     0.08500
C784        C  0.53873508  0.71716818  0.42278768    -0.13600
H785        H  0.55559280  0.76152731  0.38185890     0.12500
H786        H  0.60984617  0.71380945  0.35988384     0.12500
H787        H  0.57324699  0.67075312  0.41768033     0.12500
H788        H  0.51900186  0.71845499  0.44009629     0.12500
C789        C  0.68453617  0.94314571  0.38781601    -0.13600
C790        C  0.65808996  0.91694271  0.36437786     0.08500
C791        C  0.62751658  0.91254999  0.37316776    -0.13600
C792        C  0.62338020  0.93365814  0.40510363    -0.13600
C793        C  0.64968305  0.95948787  0.42952158     0.08500
C794        C  0.68034865  0.96410461  0.42038534    -0.13600
H795        H  0.70836049  0.94711563  0.38174392     0.12500
H796        H  0.60665906  0.89270206  0.35534102     0.12500
H797        H  0.59946151  0.92939547  0.41129646     0.12500
H798        H  0.70114012  0.98391048  0.43841491     0.12500
C799        C  0.78492995  0.87555938  0.37832346    -0.13600
C800        C  0.75873153  0.84494047  0.36843720     0.08500
C801        C  0.75780063  0.81826748  0.39219576    -0.13600
C802        C  0.78240943  0.82218115  0.42556413    -0.13600
C803        C  0.80864345  0.85281547  0.43535425     0.08500
C804        C  0.80967385  0.87943433  0.41118153    -0.13600
H805        H  0.78642815  0.89659714  0.36043181     0.12500
H806        H  0.73790162  0.79438948  0.38543048     0.12500
H807        H  0.78095050  0.80115825  0.44343056     0.12500
H808        H  0.82949414  0.90335383  0.41794671     0.12500
C809        C  0.57537709  0.82798454  0.08432690    -0.13600
C810        C  0.58215189  0.84033491  0.13563067     0.08500
C811        C  0.56794776  0.85756306  0.15453253    -0.13600
C812        C  0.54781706  0.86296054  0.12201440    -0.13600
C813        C  0.54087137  0.85032196  0.07082131     0.08500
C814        C  0.55455705  0.83251507  0.05252294    -0.13600
H815        H  0.58604498  0.81462116  0.06895325     0.12500
H816        H  0.57306177  0.86750664  0.19390659     0.13900
H817        H  0.53737792  0.87661408  0.13700376     0.12500
H818        H  0.54962856  0.82260775  0.01311834     0.12500
C819        C  0.63167067  0.72633557  0.10013268    -0.13600
C820        C  0.65855555  0.74179322  0.13284158     0.08500
C821        C  0.68038464  0.73083171  0.13429400    -0.13600
C822        C  0.67584942  0.70532846  0.10221767    -0.13600
C823        C  0.64877652  0.68967947  0.06991949     0.08500
C824        C  0.62653002  0.70011061  0.06958271    -0.13600
H825        H  0.61444918  0.73433036  0.09875185     0.12500
H826        H  0.70125606  0.74245986  0.15930650     0.12500
H827        H  0.69330678  0.69762842  0.10289848     0.12500
H828        H  0.60565363  0.68852964  0.04456736     0.12500
C829        C  0.75088128  0.92091320  0.07741213    -0.13600
C830        C  0.75663745  0.91448921  0.12876037     0.08500
C831        C  0.78818386  0.92882367  0.14717740    -0.13600
C832        C  0.81363916  0.94898800  0.11440026    -0.13600
C833        C  0.80779852  0.95586118  0.06337655     0.08500
C834        C  0.77622499  0.94183594  0.04528434    -0.13600
H835        H  0.72674827  0.91013088  0.06245630     0.12500
H836        H  0.79314507  0.92398407  0.18659579     0.12500
H837        H  0.83779742  0.95967740  0.12919295     0.12500
H838        H  0.77118966  0.94672855  0.00595269     0.12500
C839        C  0.58124205  0.58388858  0.99314235    -0.13500
C840        C  0.55635715  0.55872870  0.99269485    -0.15100
C841        C  0.50071475  0.94273874  0.99945759    -0.13500
C842        C  0.50086217  0.91782678  0.00084709    -0.15100
C843        C  0.91575700  0.49800158  0.99474980    -0.13500
C844        C  0.94081804  0.49832555  0.99461603    -0.15100
C845        C  0.91261663  0.62763425  0.62675499    -0.13600
C846        C  0.91573350  0.65794580  0.63339199     0.08500
C847        C  0.94075231  0.68437853  0.60764334    -0.13600
C848        C  0.96195080  0.68044273  0.57536521    -0.13600
C849        C  0.95878407  0.65006292  0.56877853     0.08500
C850        C  0.93396544  0.62377126  0.59510780    -0.13600
H851        H  0.89369423  0.60680070  0.64629060     0.12500
H852        H  0.94369947  0.70800716  0.61191400     0.12500
H853        H  0.98087998  0.70122407  0.55575353     0.12500
H854        H  0.93077410  0.60004412  0.59090810     0.12500
C855        C  0.82762082  0.57538131  0.91789741    -0.13600
C856        C  0.83924502  0.58182224  0.86612173     0.08500
C857        C  0.85567113  0.56699699  0.84632892    -0.13600
C858        C  0.86097500  0.54656397  0.87825641    -0.13600
C859        C  0.84904951  0.53989873  0.92984288     0.08500
C860        C  0.83204148  0.55419732  0.94920113    -0.13600
H861        H  0.81490984  0.58655433  0.93397982     0.12500
H862        H  0.86506639  0.57183487  0.80660396     0.12500
H863        H  0.87397361  0.53562548  0.86246262     0.12500
H864        H  0.82268740  0.54944319  0.98895691     0.12500
C865        C  0.94591448  0.77725568  0.95112789    -0.13600
C866        C  0.95906910  0.80904217  0.93389217     0.08500
C867        C  0.95160005  0.81497080  0.88331659    -0.13600
C868        C  0.93151921  0.78947364  0.85038139    -0.13600
C869        C  0.91785695  0.75773541  0.86815798     0.08500
C870        C  0.92511686  0.75186395  0.91887104    -0.13600
H871        H  0.95123277  0.77205566  0.99003586     0.12500
H872        H  0.96159145  0.83926226  0.86907319     0.12500
H873        H  0.92602159  0.79455965  0.81152419     0.12500
H874        H  0.91485068  0.72759799  0.93340591     0.12500
C875        C  0.71480808  0.58913578  0.62432180    -0.13600
C876        C  0.74123377  0.58513463  0.63288099     0.08500
C877        C  0.74215754  0.55968568  0.60793337    -0.13600
C878        C  0.71737166  0.53895735  0.57457192    -0.13600
C879        C  0.69097653  0.54303068  0.56596755     0.08500
C880        C  0.68990825  0.56824253  0.59148493    -0.13600
H881        H  0.71330219  0.60844989  0.64310257     0.12500
H882        H  0.76221103  0.55602140  0.61366324     0.12500
H883        H  0.71885751  0.51966414  0.55567944     0.12500
H884        H  0.66998589  0.57210139  0.58565672     0.12500
C885        C  0.87674330  0.81057871  0.59354279    -0.13600
C886        C  0.85039336  0.80947653  0.56861824     0.08500
C887        C  0.81990122  0.78268796  0.57686061    -0.13600
C888        C  0.81590129  0.75761683  0.60950131    -0.13600
C889        C  0.84236665  0.75868698  0.63396885     0.08500
C890        C  0.87279968  0.78543424  0.62558034    -0.13600
H891        H  0.90055432  0.83077025  0.58796732     0.12500
H892        H  0.79908174  0.78114781  0.55833299     0.12500
H893        H  0.79218254  0.73727205  0.61511324     0.12500
H894        H  0.89368145  0.78705211  0.64401918     0.12500
C895        C  0.71225132  0.64402925  0.85136861    -0.13600
C896        C  0.74356710  0.65972294  0.87098764     0.08500
C897        C  0.74893897  0.66996692  0.92362860    -0.13600
C898        C  0.72347241  0.66504936  0.95585026    -0.13600
C899        C  0.69211584  0.64889934  0.93645140     0.08500
C900        C  0.68669215  0.63826099  0.88404659    -0.13600
H901        H  0.70747575  0.63563862  0.81104144     0.12500
H902        H  0.77286831  0.68206762  0.93965919     0.12500
H903        H  0.72821302  0.67345991  0.99616861     0.12500
H904        H  0.66274072  0.62599015  0.86810989     0.12500
loop_ 
_geom_bond_atom_site_label_1 
_geom_bond_atom_site_label_2 
_geom_bond_distance 
_geom_bond_site_symmetry_2 
_ccdc_geom_bond_type 
Zn1           O5   1.955       .  S
Zn1           O6   2.015       .  S
Zn1          O10   2.014       .  S
Zn1          O17   2.015       .  S
Zn2           O5   1.957       .  S
Zn2           O7   2.032       .  S
Zn2           O9   2.020       .  S
Zn2          O13   1.996       .  S
Zn3           O5   1.957       .  S
Zn3           O8   2.017       .  S
Zn3          O11   2.001       .  S
Zn3          O14   2.031       .  S
Zn4           O5   1.958       .  S
Zn4          O12   1.999       .  S
Zn4          O15   2.031       .  S
Zn4          O16   2.018       .  S
O6           C18   1.274       .  A
O7           C19   1.276       .  A
O8           C20   1.273       .  A
O9           C18   1.274       .  A
O10          C20   1.273       .  A
O11          C19   1.272       .  A
O12          C21   1.272       .  A
O13          C22   1.272       .  A
O14          C21   1.276       .  A
O15          C22   1.276       .  A
O16          C23   1.274       .  A
O17          C23   1.273       .  A
C18         C191   1.475       .  S
C19         C168   1.480       .  S
C20         C178   1.474       .  S
C21         C198   1.480       .  S
C22         C211   1.479       .  S
C23         C218   1.476       .  S
C24          N29   1.358       .  A
C24         N703   1.358       .  A
C24         C392   1.439       .  S
N25          C26   1.358   1_655  A
N25         C702   1.358   1_545  A
C26          N27   1.359       .  A
C26         C162   1.440       .  S
N27         C706   1.359   1_545  A
C28          N29   1.359       .  A
C28         N705   1.359       .  A
C28         C615   1.441       .  S
C30         C181   1.474       .  S
C30          N31   1.356   1_545  A
C30          N35   1.360       .  A
N31         C258   1.356   1_556  A
C32         C155   1.473       .  S
C32          N33   1.360       .  A
C32         N257   1.356   1_554  A
N33         C260   1.359   1_554  A
C34          N35   1.359   1_565  A
C34         N259   1.359   1_556  A
C34         C165   1.439       .  S
C36         C145   1.472       .  S
C36          N37   1.360       .  A
C36          N41   1.357       .  A
N37          C38   1.358   1_554  A
C38          N39   1.358       .  A
C38         C161   1.439       .  S
N39          C40   1.360       .  A
C40         C221   1.475       .  S
C40          N41   1.358   1_556  A
C42         C135   1.475       .  S
C42          N43   1.356   1_455  A
C42          N47   1.360       .  A
N43         C496   1.356   1_554  A
C44         C188   1.476       .  S
C44          N45   1.360       .  A
C44         N495   1.356   1_556  A
N45         C498   1.359   1_556  A
C46          N47   1.360       .  A
C46         N497   1.359   1_454  A
C46         C164   1.440       .  S
Zn48         O52   1.950       .  S
Zn48         O53   2.019       .  S
Zn48         O57   1.992       .  S
Zn48         O64   2.019       .  S
Zn49         O52   1.944       .  S
Zn49         O54   2.018       .  S
Zn49         O56   2.006       .  S
Zn49         O60   2.014       .  S
Zn50         O52   1.954       .  S
Zn50         O55   2.032       .  S
Zn50         O58   2.010       .  S
Zn50         O61   2.001       .  S
Zn51         O52   1.955       .  S
Zn51         O59   2.023       .  S
Zn51         O62   2.024       .  S
Zn51         O63   2.009       .  S
O53          C65   1.273       .  A
O54          C66   1.275       .  A
O55          C67   1.276       .  A
O56          C65   1.272       .  A
O57          C67   1.272       .  A
O58          C66   1.273       .  A
O59          C68   1.275       .  A
O60          C69   1.273       .  A
O61          C68   1.272       .  A
O62          C69   1.274       .  A
O63          C70   1.274       .  A
O64          C70   1.275       .  A
C65         C132   1.473       .  S
C66         C152   1.472       .  S
C67         C112   1.478       .  S
C68         C122   1.479       .  S
C69         C142   1.472       .  S
C70         C102   1.480       .  S
C71          N72   1.357       .  A
C71         N754   1.358   1_445  A
C71         C324   1.437   1_545  S
N72          C73   1.357       .  A
C73         N752   1.357   1_455  A
C73         C548   1.436       .  S
N74          C75   1.357       .  A
N74         C751   1.357       .  A
C75          N76   1.358       .  A
C75          C99   1.437       .  S
N76         C749   1.358       .  A
C77         C115   1.480       .  S
C77          N78   1.360       .  A
C77          N82   1.358       .  A
N78          C79   1.356       .  A
C79         N306   1.356       .  A
C79          C97   1.437       .  S
N80          C81   1.360       .  A
N80         C305   1.356       .  A
C81         C201   1.481       .  S
C81         N308   1.358       .  A
N82         C307   1.358       .  A
C83         C171   1.483       .  S
C83          N84   1.359       .  A
C83          N88   1.360       .  A
N84         C537   1.360       .  A
C85         C105   1.481       .  S
C85          N86   1.359       .  A
C85         N536   1.360       .  A
N86         C539   1.355       .  A
C87          N88   1.356       .  A
C87         N538   1.355       .  A
C87          C95   1.436       .  S
C89         C208   1.481       .  S
C89          N90   1.360       .  A
C89          N94   1.359       .  A
N90          C91   1.356       .  A
C91          N92   1.356       .  A
C91         C100   1.436       .  S
N92          C93   1.360       .  A
C93         C125   1.480       .  S
C93          N94   1.359       .  A
C95          C96   1.206       .  T
C96         C525   1.436       .  S
C97          C98   1.207       .  T
C98         C297   1.437       .  S
C99         C100   1.206       .  T
C101        C102   1.405       .  A
C101        C106   1.398       .  A
C101        H107   1.083       .  S
C102        C103   1.406       .  A
C103        C104   1.396       .  A
C103        H108   1.083       .  S
C104        C105   1.405       .  A
C104        H109   1.083       .  S
C105        C106   1.406       .  A
C106        H110   1.083       .  S
C111        C112   1.404       .  A
C111        C116   1.399       .  A
C111        H117   1.083       .  S
C112        C113   1.406       .  A
C113        C114   1.395       .  A
C113        H118   1.083       .  S
C114        C115   1.403       .  A
C114        H119   1.083       .  S
C115        C116   1.408       .  A
C116        H120   1.083       .  S
C121        C122   1.406       .  A
C121        C126   1.396       .  A
C121        H127   1.083       .  S
C122        C123   1.404       .  A
C123        C124   1.398       .  A
C123        H128   1.083       .  S
C124        C125   1.407       .  A
C124        H129   1.083       .  S
C125        C126   1.405       .  A
C126        H130   1.083       .  S
C131        C132   1.402       .  A
C131        C136   1.395       .  A
C131        H137   1.083       .  S
C132        C133   1.406       .  A
C133        C134   1.401       .  A
C133        H138   1.083       .  S
C134        C135   1.404       .  A
C134        H139   1.083       .  S
C135        C136   1.404       .  A
C136        H140   1.083       .  S
C141        C142   1.404       .  A
C141        C146   1.398       .  A
C141        H147   1.083       .  S
C142        C143   1.403       .  A
C143        C144   1.400       .  A
C143        H148   1.083       .  S
C144        C145   1.404       .  A
C144        H149   1.083       .  S
C145        C146   1.403       .  A
C146        H150   1.083       .  S
C151        C152   1.402       .  A
C151        C156   1.396       .  A
C151        H157   1.083       .  S
C152        C153   1.405       .  A
C153        C154   1.399       .  A
C153        H158   1.083       .  S
C154        C155   1.403       .  A
C154        H159   1.083       .  S
C155        C156   1.405       .  A
C156        H160   1.083       .  S
C161        C162   1.208       .  T
C163        C480   1.441   1_455  S
C163        C164   1.209   1_556  T
C165        C166   1.208       .  T
C166        C250   1.439       .  S
C167        C168   1.406       .  A
C167        C172   1.395       .  A
C167        H173   1.083       .  S
C168        C169   1.405       .  A
C169        C170   1.400       .  A
C169        H174   1.083       .  S
C170        C171   1.408       .  A
C170        H175   1.083       .  S
C171        C172   1.405       .  A
C172        H176   1.083       .  S
C177        C178   1.403       .  A
C177        C182   1.397       .  A
C177        H183   1.083       .  S
C178        C179   1.405       .  A
C179        C180   1.399       .  A
C179        H184   1.083       .  S
C180        C181   1.403       .  A
C180        H185   1.083       .  S
C181        C182   1.405       .  A
C182        H186   1.083       .  S
C187        C188   1.405       .  A
C187        C192   1.397       .  A
C187        H193   1.083       .  S
C188        C189   1.404       .  A
C189        C190   1.400       .  A
C189        H194   1.083       .  S
C190        C191   1.405       .  A
C190        H195   1.083       .  S
C191        C192   1.403       .  A
C192        H196   1.083       .  S
C197        C198   1.407       .  A
C197        C202   1.396       .  A
C197        H203   1.083       .  S
C198        C199   1.404       .  A
C199        C200   1.399       .  A
C199        H204   1.083       .  S
C200        C201   1.407       .  A
C200        H205   1.083       .  S
C201        C202   1.404       .  A
C202        H206   1.083       .  S
C207        C208   1.404       .  A
C207        C212   1.394       .  A
C207        H213   1.083       .  S
C208        C209   1.408       .  A
C209        C210   1.400       .  A
C209        H214   1.083       .  S
C210        C211   1.404       .  A
C210        H215   1.083       .  S
C211        C212   1.406       .  A
C212        H216   1.083       .  S
C217        C218   1.405       .  A
C217        C222   1.398       .  A
C217        H223   1.083       .  S
C218        C219   1.404       .  A
C219        C220   1.398       .  A
C219        H224   1.083       .  S
C220        C221   1.404       .  A
C220        H225   1.083       .  S
C221        C222   1.404       .  A
C222        H226   1.083       .  S
Zn227       O231   1.955       .  S
Zn227       O232   2.015       .  S
Zn227       O236   2.014       .  S
Zn227       O243   2.015       .  S
Zn228       O231   1.957       .  S
Zn228       O233   2.032       .  S
Zn228       O235   2.020       .  S
Zn228       O239   1.996       .  S
Zn229       O231   1.957       .  S
Zn229       O234   2.017       .  S
Zn229       O237   2.001       .  S
Zn229       O240   2.031       .  S
Zn230       O231   1.958       .  S
Zn230       O238   1.999       .  S
Zn230       O241   2.031       .  S
Zn230       O242   2.018       .  S
O232        C244   1.274       .  A
O233        C245   1.276       .  A
O234        C246   1.273       .  A
O235        C244   1.274       .  A
O236        C246   1.273       .  A
O237        C245   1.272       .  A
O238        C247   1.272       .  A
O239        C248   1.272       .  A
O240        C247   1.276       .  A
O241        C248   1.276       .  A
O242        C249   1.274       .  A
O243        C249   1.273       .  A
C244        C417   1.475       .  S
C245        C394   1.480       .  S
C246        C404   1.474       .  S
C247        C424   1.480       .  S
C248        C437   1.479       .  S
C249        C444   1.476       .  S
C250        N477   1.358   1_565  A
C250        N255   1.358       .  A
N251        C476   1.358       .  A
N251        C252   1.358   1_655  A
C252        N253   1.359       .  A
C252        C388   1.440       .  S
N253        C480   1.359   1_455  A
C254        N479   1.359   1_565  A
C254        N255   1.359       .  A
C254        C841   1.441       .  S
C256        C407   1.473       .  S
C256        N257   1.356       .  A
C256        N261   1.360       .  A
C258        C381   1.473       .  S
C258        N259   1.360       .  A
C260        N261   1.359       .  A
C260        C391   1.439       .  S
C262        C371   1.472       .  S
C262        N263   1.360       .  A
C262        N267   1.357       .  A
N263        C264   1.358   1_554  A
C264        N265   1.358       .  A
C264        C387   1.439       .  S
N265        C266   1.360       .  A
C266        C447   1.475       .  S
C266        N267   1.358   1_556  A
C268        C361   1.475       .  S
C268        N269   1.356   1_455  A
C268        N273   1.360       .  A
N269        C722   1.356   1_554  A
C270        C414   1.476       .  S
C270        N721   1.356   1_556  A
C270        N271   1.360       .  A
N271        C724   1.359   1_556  A
C272        N723   1.359   1_454  A
C272        N273   1.360       .  A
C272        C390   1.440       .  S
Zn274       O278   1.950       .  S
Zn274       O279   2.019       .  S
Zn274       O283   1.992       .  S
Zn274       O290   2.019       .  S
Zn275       O278   1.944       .  S
Zn275       O280   2.018       .  S
Zn275       O282   2.006       .  S
Zn275       O286   2.014       .  S
Zn276       O278   1.954       .  S
Zn276       O281   2.032       .  S
Zn276       O284   2.010       .  S
Zn276       O287   2.001       .  S
Zn277       O278   1.955       .  S
Zn277       O285   2.023       .  S
Zn277       O288   2.024       .  S
Zn277       O289   2.010       .  S
O279        C291   1.273       .  A
O280        C292   1.275       .  A
O281        C293   1.276       .  A
O282        C291   1.272       .  A
O283        C293   1.272       .  A
O284        C292   1.273       .  A
O285        C294   1.275       .  A
O286        C295   1.273       .  A
O287        C294   1.272       .  A
O288        C295   1.274       .  A
O289        C296   1.274       .  A
O290        C296   1.275       .  A
C291        C358   1.473       .  S
C292        C378   1.472       .  S
C293        C338   1.478       .  S
C294        C348   1.479       .  S
C295        C368   1.472       .  S
C296        C328   1.480       .  S
C297        N298   1.357       .  A
C297        N528   1.358   1_455  A
N298        C299   1.357       .  A
C299        N526   1.357   1_455  A
C299        C774   1.436       .  S
N300        C525   1.357       .  A
N300        C301   1.357   1_545  A
C301        N302   1.358       .  A
C301        C325   1.437       .  S
N302        C523   1.358   1_565  A
C303        C341   1.480       .  S
C303        N304   1.360       .  A
C303        N308   1.358   1_565  A
N304        C305   1.356   1_565  A
C305        C323   1.437       .  S
N306        C307   1.360       .  A
C307        C427   1.481       .  S
C309        C397   1.483       .  S
C309        N310   1.359       .  A
C309        N314   1.360       .  A
N310        C763   1.360       .  A
C311        C331   1.481       .  S
C311        N762   1.360       .  A
C311        N312   1.359       .  A
N312        C765   1.355       .  A
C313        N764   1.355       .  A
C313        N314   1.356       .  A
C313        C321   1.436       .  S
C315        C434   1.481       .  S
C315        N316   1.360       .  A
C315        N320   1.358       .  A
N316        C317   1.356       .  A
C317        N318   1.356       .  A
C317        C326   1.436       .  S
N318        C319   1.360       .  A
C319        C351   1.480       .  S
C319        N320   1.359       .  A
C321        C322   1.206       .  T
C322        C751   1.436       .  S
C323        C324   1.207   1_545  T
C325        C326   1.206       .  T
C327        C328   1.405       .  A
C327        C332   1.398       .  A
C327        H333   1.083       .  S
C328        C329   1.406       .  A
C329        C330   1.396       .  A
C329        H334   1.083       .  S
C330        C331   1.405       .  A
C330        H335   1.083       .  S
C331        C332   1.406       .  A
C332        H336   1.083       .  S
C337        C338   1.404       .  A
C337        C342   1.399       .  A
C337        H343   1.083       .  S
C338        C339   1.406       .  A
C339        C340   1.394       .  A
C339        H344   1.083       .  S
C340        C341   1.403       .  A
C340        H345   1.083       .  S
C341        C342   1.408       .  A
C342        H346   1.083       .  S
C347        C348   1.406       .  A
C347        C352   1.396       .  A
C347        H353   1.083       .  S
C348        C349   1.404       .  A
C349        C350   1.398       .  A
C349        H354   1.083       .  S
C350        C351   1.407       .  A
C350        H355   1.083       .  S
C351        C352   1.405       .  A
C352        H356   1.083       .  S
C357        C358   1.402       .  A
C357        C362   1.395       .  A
C357        H363   1.083       .  S
C358        C359   1.406       .  A
C359        C360   1.401       .  A
C359        H364   1.083       .  S
C360        C361   1.404       .  A
C360        H365   1.083       .  S
C361        C362   1.404       .  A
C362        H366   1.083       .  S
C367        C368   1.404       .  A
C367        C372   1.398       .  A
C367        H373   1.083       .  S
C368        C369   1.403       .  A
C369        C370   1.400       .  A
C369        H374   1.083       .  S
C370        C371   1.404       .  A
C370        H375   1.083       .  S
C371        C372   1.402       .  A
C372        H376   1.083       .  S
C377        C378   1.402       .  A
C377        C382   1.396       .  A
C377        H383   1.083       .  S
C378        C379   1.405       .  A
C379        C380   1.399       .  A
C379        H384   1.083       .  S
C380        C381   1.403       .  A
C380        H385   1.083       .  S
C381        C382   1.405       .  A
C382        H386   1.083       .  S
C387        C388   1.208       .  T
C389        C706   1.441       .  S
C389        C390   1.209   1_556  T
C391        C392   1.208       .  T
C393        C394   1.406       .  A
C393        C398   1.395       .  A
C393        H399   1.083       .  S
C394        C395   1.405       .  A
C395        C396   1.400       .  A
C395        H400   1.083       .  S
C396        C397   1.408       .  A
C396        H401   1.083       .  S
C397        C398   1.405       .  A
C398        H402   1.083       .  S
C403        C404   1.403       .  A
C403        C408   1.397       .  A
C403        H409   1.083       .  S
C404        C405   1.405       .  A
C405        C406   1.399       .  A
C405        H410   1.083       .  S
C406        C407   1.403       .  A
C406        H411   1.083       .  S
C407        C408   1.405       .  A
C408        H412   1.083       .  S
C413        C414   1.405       .  A
C413        C418   1.397       .  A
C413        H419   1.083       .  S
C414        C415   1.404       .  A
C415        C416   1.400       .  A
C415        H420   1.083       .  S
C416        C417   1.405       .  A
C416        H421   1.083       .  S
C417        C418   1.403       .  A
C418        H422   1.083       .  S
C423        C424   1.407       .  A
C423        C428   1.396       .  A
C423        H429   1.083       .  S
C424        C425   1.404       .  A
C425        C426   1.399       .  A
C425        H430   1.083       .  S
C426        C427   1.407       .  A
C426        H431   1.083       .  S
C427        C428   1.404       .  A
C428        H432   1.083       .  S
C433        C434   1.404       .  A
C433        C438   1.394       .  A
C433        H439   1.083       .  S
C434        C435   1.408       .  A
C435        C436   1.400       .  A
C435        H440   1.083       .  S
C436        C437   1.404       .  A
C436        H441   1.083       .  S
C437        C438   1.406       .  A
C438        H442   1.083       .  S
C443        C444   1.405       .  A
C443        C448   1.398       .  A
C443        H449   1.083       .  S
C444        C445   1.404       .  A
C445        C446   1.398       .  A
C445        H450   1.083       .  S
C446        C447   1.404       .  A
C446        H451   1.083       .  S
C447        C448   1.404       .  A
C448        H452   1.083       .  S
Zn453       O457   1.955       .  S
Zn453       O458   2.015       .  S
Zn453       O462   2.014       .  S
Zn453       O469   2.015       .  S
Zn454       O457   1.957       .  S
Zn454       O459   2.032       .  S
Zn454       O461   2.020       .  S
Zn454       O465   1.996       .  S
Zn455       O457   1.957       .  S
Zn455       O460   2.017       .  S
Zn455       O463   2.001       .  S
Zn455       O466   2.031       .  S
Zn456       O457   1.958       .  S
Zn456       O464   1.999       .  S
Zn456       O467   2.031       .  S
Zn456       O468   2.018       .  S
O458        C470   1.274       .  A
O459        C471   1.276       .  A
O460        C472   1.273       .  A
O461        C470   1.274       .  A
O462        C472   1.273       .  A
O463        C471   1.272       .  A
O464        C473   1.272       .  A
O465        C474   1.272       .  A
O466        C473   1.276       .  A
O467        C474   1.276       .  A
O468        C475   1.274       .  A
O469        C475   1.273       .  A
C470        C643   1.475       .  S
C471        C620   1.480       .  S
C472        C630   1.474       .  S
C473        C650   1.480       .  S
C474        C663   1.479       .  S
C475        C670   1.476       .  S
C476        N481   1.358       .  A
C476        C844   1.439       .  S
N477        C478   1.358       .  A
C478        N479   1.359       .  A
C478        C614   1.440       .  S
C480        N481   1.359       .  A
C482        C633   1.474       .  S
C482        N483   1.356   1_545  A
C482        N487   1.360       .  A
N483        C710   1.356   1_556  A
C484        C607   1.473       .  S
C484        N709   1.356   1_554  A
C484        N485   1.360       .  A
N485        C712   1.359   1_554  A
C486        N711   1.359   1_556  A
C486        N487   1.359   1_565  A
C486        C617   1.439       .  S
C488        C597   1.472       .  S
C488        N489   1.360       .  A
C488        N493   1.357       .  A
N489        C490   1.358   1_554  A
C490        N491   1.358       .  A
C490        C613   1.439       .  S
N491        C492   1.360       .  A
C492        C673   1.475       .  S
C492        N493   1.358   1_556  A
C494        C587   1.475       .  S
C494        N495   1.356       .  A
C494        N499   1.360       .  A
C496        C640   1.476       .  S
C496        N497   1.360       .  A
C498        N499   1.360       .  A
C498        C616   1.440       .  S
Zn500       O504   1.950       .  S
Zn500       O505   2.019       .  S
Zn500       O509   1.992       .  S
Zn500       O516   2.019       .  S
Zn501       O504   1.944       .  S
Zn501       O506   2.018       .  S
Zn501       O508   2.006       .  S
Zn501       O512   2.014       .  S
Zn502       O504   1.954       .  S
Zn502       O507   2.032       .  S
Zn502       O510   2.010       .  S
Zn502       O513   2.001       .  S
Zn503       O504   1.955       .  S
Zn503       O511   2.023       .  S
Zn503       O514   2.024       .  S
Zn503       O515   2.009       .  S
O505        C517   1.273       .  A
O506        C518   1.275       .  A
O507        C519   1.276       .  A
O508        C517   1.272       .  A
O509        C519   1.272       .  A
O510        C518   1.273       .  A
O511        C520   1.275       .  A
O512        C521   1.273       .  A
O513        C520   1.272       .  A
O514        C521   1.274       .  A
O515        C522   1.274       .  A
O516        C522   1.275       .  A
C517        C584   1.473       .  S
C518        C604   1.472       .  S
C519        C564   1.478       .  S
C520        C574   1.479       .  S
C521        C594   1.472       .  S
C522        C554   1.480       .  S
C523        N524   1.357       .  A
C523        C776   1.437   1_545  S
N524        C525   1.357       .  A
N526        C527   1.357       .  A
C527        N528   1.358       .  A
C527        C551   1.437       .  S
C529        C567   1.480       .  S
C529        N530   1.360       .  A
C529        N534   1.358       .  A
N530        C531   1.356       .  A
C531        N758   1.356       .  A
C531        C549   1.437       .  S
N532        C757   1.356       .  A
N532        C533   1.360       .  A
C533        C653   1.481       .  S
C533        N760   1.358       .  A
N534        C759   1.358       .  A
C535        C623   1.483       .  S
C535        N536   1.359   1_655  A
C535        N540   1.360       .  A
C537        C557   1.481       .  S
C537        N538   1.359       .  A
C539        N540   1.356   1_455  A
C539        C547   1.436       .  S
C541        C660   1.481       .  S
C541        N542   1.360       .  A
C541        N546   1.359       .  A
N542        C543   1.356       .  A
C543        N544   1.356       .  A
C543        C552   1.436       .  S
N544        C545   1.360       .  A
C545        C577   1.480       .  S
C545        N546   1.359       .  A
C547        C548   1.206       .  T
C549        C550   1.207       .  T
C550        C749   1.437       .  S
C551        C552   1.206       .  T
C553        C554   1.405       .  A
C553        C558   1.398       .  A
C553        H559   1.083       .  S
C554        C555   1.406       .  A
C555        C556   1.396       .  A
C555        H560   1.083       .  S
C556        C557   1.405       .  A
C556        H561   1.083       .  S
C557        C558   1.406       .  A
C558        H562   1.083       .  S
C563        C564   1.404       .  A
C563        C568   1.399       .  A
C563        H569   1.083       .  S
C564        C565   1.406       .  A
C565        C566   1.395       .  A
C565        H570   1.083       .  S
C566        C567   1.403       .  A
C566        H571   1.083       .  S
C567        C568   1.408       .  A
C568        H572   1.083       .  S
C573        C574   1.406       .  A
C573        C578   1.396       .  A
C573        H579   1.083       .  S
C574        C575   1.404       .  A
C575        C576   1.398       .  A
C575        H580   1.083       .  S
C576        C577   1.407       .  A
C576        H581   1.083       .  S
C577        C578   1.405       .  A
C578        H582   1.083       .  S
C583        C584   1.402       .  A
C583        C588   1.395       .  A
C583        H589   1.083       .  S
C584        C585   1.406       .  A
C585        C586   1.401       .  A
C585        H590   1.083       .  S
C586        C587   1.404       .  A
C586        H591   1.083       .  S
C587        C588   1.404       .  A
C588        H592   1.083       .  S
C593        C594   1.404       .  A
C593        C598   1.398       .  A
C593        H599   1.083       .  S
C594        C595   1.403       .  A
C595        C596   1.400       .  A
C595        H600   1.083       .  S
C596        C597   1.404       .  A
C596        H601   1.083       .  S
C597        C598   1.403       .  A
C598        H602   1.083       .  S
C603        C604   1.402       .  A
C603        C608   1.396       .  A
C603        H609   1.083       .  S
C604        C605   1.405       .  A
C605        C606   1.399       .  A
C605        H610   1.083       .  S
C606        C607   1.403       .  A
C606        H611   1.083       .  S
C607        C608   1.405       .  A
C608        H612   1.083       .  S
C613        C614   1.208       .  T
C615        C616   1.209   1_556  T
C617        C618   1.208       .  T
C618        C702   1.439       .  S
C619        C620   1.406       .  A
C619        C624   1.395       .  A
C619        H625   1.083       .  S
C620        C621   1.405       .  A
C621        C622   1.400       .  A
C621        H626   1.083       .  S
C622        C623   1.408       .  A
C622        H627   1.083       .  S
C623        C624   1.405       .  A
C624        H628   1.083       .  S
C629        C630   1.403       .  A
C629        C634   1.397       .  A
C629        H635   1.083       .  S
C630        C631   1.405       .  A
C631        C632   1.399       .  A
C631        H636   1.083       .  S
C632        C633   1.403       .  A
C632        H637   1.083       .  S
C633        C634   1.405       .  A
C634        H638   1.083       .  S
C639        C640   1.405       .  A
C639        C644   1.397       .  A
C639        H645   1.083       .  S
C640        C641   1.404       .  A
C641        C642   1.400       .  A
C641        H646   1.083       .  S
C642        C643   1.405       .  A
C642        H647   1.083       .  S
C643        C644   1.403       .  A
C644        H648   1.083       .  S
C649        C650   1.407       .  A
C649        C654   1.396       .  A
C649        H655   1.083       .  S
C650        C651   1.404       .  A
C651        C652   1.399       .  A
C651        H656   1.083       .  S
C652        C653   1.407       .  A
C652        H657   1.083       .  S
C653        C654   1.404       .  A
C654        H658   1.083       .  S
C659        C660   1.404       .  A
C659        C664   1.394       .  A
C659        H665   1.083       .  S
C660        C661   1.408       .  A
C661        C662   1.400       .  A
C661        H666   1.083       .  S
C662        C663   1.404       .  A
C662        H667   1.083       .  S
C663        C664   1.406       .  A
C664        H668   1.083       .  S
C669        C670   1.405       .  A
C669        C674   1.398       .  A
C669        H675   1.083       .  S
C670        C671   1.404       .  A
C671        C672   1.398       .  A
C671        H676   1.083       .  S
C672        C673   1.404       .  A
C672        H677   1.083       .  S
C673        C674   1.404       .  A
C674        H678   1.083       .  S
Zn679       O683   1.955       .  S
Zn679       O684   2.015       .  S
Zn679       O688   2.014       .  S
Zn679       O695   2.015       .  S
Zn680       O683   1.957       .  S
Zn680       O685   2.032       .  S
Zn680       O687   2.020       .  S
Zn680       O691   1.996       .  S
Zn681       O683   1.957       .  S
Zn681       O686   2.017       .  S
Zn681       O689   2.001       .  S
Zn681       O692   2.031       .  S
Zn682       O683   1.958       .  S
Zn682       O690   1.999       .  S
Zn682       O693   2.031       .  S
Zn682       O694   2.018       .  S
O684        C696   1.274       .  A
O685        C697   1.276       .  A
O686        C698   1.273       .  A
O687        C696   1.274       .  A
O688        C698   1.273       .  A
O689        C697   1.272       .  A
O690        C699   1.272       .  A
O691        C700   1.272       .  A
O692        C699   1.276       .  A
O693        C700   1.276       .  A
O694        C701   1.274       .  A
O695        C701   1.273       .  A
C696        C869   1.475       .  S
C697        C846   1.480       .  S
C698        C856   1.474       .  S
C699        C876   1.480       .  S
C700        C889   1.479       .  S
C701        C896   1.476       .  S
C702        N707   1.358       .  A
N703        C704   1.358       .  A
C704        N705   1.359       .  A
C704        C840   1.440       .  S
C706        N707   1.359   1_455  A
C708        C859   1.473       .  S
C708        N709   1.356       .  A
C708        N713   1.360       .  A
C710        C833   1.473       .  S
C710        N711   1.360       .  A
C712        N713   1.359       .  A
C712        C843   1.439       .  S
C714        C823   1.472       .  S
C714        N715   1.360       .  A
C714        N719   1.357       .  A
N715        C716   1.358   1_554  A
C716        N717   1.358       .  A
C716        C839   1.439       .  S
N717        C718   1.360       .  A
C718        C899   1.475       .  S
C718        N719   1.358   1_556  A
C720        C813   1.475       .  S
C720        N721   1.356       .  A
C720        N725   1.360       .  A
C722        C866   1.476       .  S
C722        N723   1.360       .  A
C724        N725   1.360       .  A
C724        C842   1.440       .  S
Zn726       O730   1.950       .  S
Zn726       O731   2.019       .  S
Zn726       O735   1.992       .  S
Zn726       O742   2.019       .  S
Zn727       O730   1.944       .  S
Zn727       O732   2.018       .  S
Zn727       O734   2.006       .  S
Zn727       O738   2.014       .  S
Zn728       O730   1.954       .  S
Zn728       O733   2.032       .  S
Zn728       O736   2.010       .  S
Zn728       O739   2.001       .  S
Zn729       O730   1.955       .  S
Zn729       O737   2.023       .  S
Zn729       O740   2.024       .  S
Zn729       O741   2.010       .  S
O731        C743   1.273       .  A
O732        C744   1.275       .  A
O733        C745   1.276       .  A
O734        C743   1.272       .  A
O735        C745   1.272       .  A
O736        C744   1.273       .  A
O737        C746   1.275       .  A
O738        C747   1.273       .  A
O739        C746   1.272       .  A
O740        C747   1.274       .  A
O741        C748   1.274       .  A
O742        C748   1.275       .  A
C743        C810   1.473       .  S
C744        C830   1.472       .  S
C745        C790   1.478       .  S
C746        C800   1.479       .  S
C747        C820   1.472       .  S
C748        C780   1.480       .  S
C749        N750   1.357       .  A
N750        C751   1.357       .  A
N752        C753   1.357   1_545  A
C753        N754   1.358       .  A
C753        C777   1.437       .  S
C755        C793   1.480       .  S
C755        N756   1.360       .  A
C755        N760   1.358   1_565  A
N756        C757   1.356   1_565  A
C757        C775   1.437       .  S
N758        C759   1.360       .  A
C759        C879   1.481       .  S
C761        C849   1.483       .  S
C761        N762   1.359   1_655  A
C761        N766   1.360       .  A
C763        C783   1.481       .  S
C763        N764   1.359       .  A
C765        N766   1.356   1_455  A
C765        C773   1.436       .  S
C767        C886   1.481       .  S
C767        N768   1.360       .  A
C767        N772   1.358       .  A
N768        C769   1.356       .  A
C769        N770   1.356       .  A
C769        C778   1.436       .  S
N770        C771   1.360       .  A
C771        C803   1.480       .  S
C771        N772   1.359       .  A
C773        C774   1.206       .  T
C775        C776   1.207   1_545  T
C777        C778   1.206       .  T
C779        C780   1.405       .  A
C779        C784   1.398       .  A
C779        H785   1.083       .  S
C780        C781   1.406       .  A
C781        C782   1.396       .  A
C781        H786   1.083       .  S
C782        C783   1.405       .  A
C782        H787   1.083       .  S
C783        C784   1.406       .  A
C784        H788   1.083       .  S
C789        C790   1.404       .  A
C789        C794   1.399       .  A
C789        H795   1.083       .  S
C790        C791   1.406       .  A
C791        C792   1.394       .  A
C791        H796   1.083       .  S
C792        C793   1.403       .  A
C792        H797   1.083       .  S
C793        C794   1.408       .  A
C794        H798   1.083       .  S
C799        C800   1.406       .  A
C799        C804   1.396       .  A
C799        H805   1.083       .  S
C800        C801   1.404       .  A
C801        C802   1.398       .  A
C801        H806   1.083       .  S
C802        C803   1.407       .  A
C802        H807   1.083       .  S
C803        C804   1.405       .  A
C804        H808   1.083       .  S
C809        C810   1.402       .  A
C809        C814   1.395       .  A
C809        H815   1.083       .  S
C810        C811   1.406       .  A
C811        C812   1.401       .  A
C811        H816   1.083       .  S
C812        C813   1.404       .  A
C812        H817   1.083       .  S
C813        C814   1.404       .  A
C814        H818   1.083       .  S
C819        C820   1.404       .  A
C819        C824   1.398       .  A
C819        H825   1.083       .  S
C820        C821   1.403       .  A
C821        C822   1.400       .  A
C821        H826   1.083       .  S
C822        C823   1.404       .  A
C822        H827   1.083       .  S
C823        C824   1.402       .  A
C824        H828   1.083       .  S
C829        C830   1.402       .  A
C829        C834   1.396       .  A
C829        H835   1.083       .  S
C830        C831   1.405       .  A
C831        C832   1.399       .  A
C831        H836   1.083       .  S
C832        C833   1.403       .  A
C832        H837   1.083       .  S
C833        C834   1.405       .  A
C834        H838   1.083       .  S
C839        C840   1.208       .  T
C841        C842   1.209   1_556  T
C843        C844   1.208       .  T
C845        C846   1.406       .  A
C845        C850   1.395       .  A
C845        H851   1.083       .  S
C846        C847   1.405       .  A
C847        C848   1.400       .  A
C847        H852   1.083       .  S
C848        C849   1.408       .  A
C848        H853   1.083       .  S
C849        C850   1.405       .  A
C850        H854   1.083       .  S
C855        C856   1.403       .  A
C855        C860   1.397       .  A
C855        H861   1.083       .  S
C856        C857   1.405       .  A
C857        C858   1.399       .  A
C857        H862   1.083       .  S
C858        C859   1.403       .  A
C858        H863   1.083       .  S
C859        C860   1.405       .  A
C860        H864   1.083       .  S
C865        C866   1.405       .  A
C865        C870   1.397       .  A
C865        H871   1.083       .  S
C866        C867   1.404       .  A
C867        C868   1.400       .  A
C867        H872   1.083       .  S
C868        C869   1.405       .  A
C868        H873   1.083       .  S
C869        C870   1.403       .  A
C870        H874   1.083       .  S
C875        C876   1.407       .  A
C875        C880   1.396       .  A
C875        H881   1.083       .  S
C876        C877   1.404       .  A
C877        C878   1.399       .  A
C877        H882   1.083       .  S
C878        C879   1.407       .  A
C878        H883   1.083       .  S
C879        C880   1.404       .  A
C880        H884   1.083       .  S
C885        C886   1.404       .  A
C885        C890   1.394       .  A
C885        H891   1.083       .  S
C886        C887   1.408       .  A
C887        C888   1.400       .  A
C887        H892   1.083       .  S
C888        C889   1.404       .  A
C888        H893   1.083       .  S
C889        C890   1.406       .  A
C890        H894   1.083       .  S
C895        C896   1.405       .  A
C895        C900   1.398       .  A
C895        H901   1.083       .  S
C896        C897   1.404       .  A
C897        C898   1.398       .  A
C897        H902   1.083       .  S
C898        C899   1.404       .  A
C898        H903   1.083       .  S
C899        C900   1.404       .  A
C900        H904   1.083       .  S
