geometry optimzed in LAMMPS
_audit_creation_date              2020-12-01 
_audit_creation_method            'lammps2cif' 
_symmetry_space_group_name_H-M    'P1' 
_symmetry_Int_Tables_number       1 
_symmetry_cell_setting            triclinic 
loop_ 
_symmetry_equiv_pos_as_xyz 
  x,y,z 
_cell_length_a                    47.12178073 
_cell_length_b                    47.28784259208656 
_cell_length_c                    28.405220468940495 
_cell_angle_alpha                 88.90279636808367 
_cell_angle_beta                  91.55549916747864 
_cell_angle_gamma                 120.73370319357434 
loop_ 
_atom_site_label 
_atom_site_type_symbol 
_atom_site_fract_x 
_atom_site_fract_y 
_atom_site_fract_z 
_atom_site_charge 
Zn1        Zn  0.42906540  0.05603462  0.22594587     1.49700
Zn2        Zn  0.36746122  0.05818615  0.17452492     1.49400
Zn3        Zn  0.43548259  0.12372349  0.18451195     1.49100
Zn4        Zn  0.43126403  0.06557538  0.11719234     1.49500
O5          O  0.41576883  0.07595080  0.17523540    -1.83500
O6          O  0.38915049  0.02477614  0.26243371    -0.74100
O7          O  0.35408950  0.09334283  0.17665965    -0.73900
O8          O  0.46076498  0.13726855  0.24785743    -0.73400
O9          O  0.34671319  0.02773180  0.23140513    -0.74100
O10         O  0.45918804  0.09122249  0.27151292    -0.73700
O11         O  0.40197470  0.13976543  0.18317336    -0.74300
O12         O  0.46175359  0.10753334  0.08190911    -0.73700
O13         O  0.34872011  0.03458031  0.11220742    -0.74500
O14         O  0.46512858  0.14649476  0.12889016    -0.73800
O15         O  0.39184542  0.03958745  0.07382809    -0.74300
O16         O  0.45568322  0.03985105  0.12797377    -0.74200
O17         O  0.45243198  0.03154532  0.20513371    -0.74000
C18         C  0.35895053  0.01683181  0.26234709     0.77800
C19         C  0.37051670  0.12464413  0.17956215     0.78300
C20         C  0.46839456  0.12137392  0.27735145     0.77200
C21         C  0.47228949  0.13762090  0.09088737     0.77600
C22         C  0.36119607  0.02990011  0.07587351     0.78700
C23         C  0.46169796  0.02795348  0.16503982     0.77800
C24         C  0.00321813  0.17562386  0.37403561     0.80900
N25         N  0.03095355  0.17411582  0.37955031    -0.77400
C26         C  0.04036987  0.16114224  0.34612770     0.83300
N27         N  0.02142061  0.14874069  0.30659597    -0.77400
C28         C  0.48930382  0.13785476  0.31882419     0.83400
N29         N  0.48133037  0.15411174  0.35015810    -0.79100
C30         C  0.31604196  0.48466285  0.37667784     0.80900
N31         N  0.31617348  0.45622910  0.38108175    -0.77400
C32         C  0.33070262  0.44763694  0.34877893     0.83300
N33         N  0.34595408  0.46800700  0.31186814    -0.77400
C34         C  0.33819585  0.99362855  0.29870240     0.83400
N35         N  0.32462788  0.00268404  0.33288017    -0.79100
C36         C  0.01731895  0.17553305  0.96340699     0.80900
N37         N  0.01710600  0.20377036  0.95864521    -0.77400
C38         C  0.00280805  0.21263443  0.99078226     0.83300
N39         N  0.49321521  0.19259250  0.05983458    -0.77400
C40         C  0.49109628  0.16307743  0.05532385     0.83400
N41         N  0.00299743  0.15548564  0.00123190    -0.79100
C42         C  0.33036978  0.49698428  0.96757688     0.80900
N43         N  0.35200254  0.50801692  0.00498445    -0.77400
C44         C  0.33984856  0.01397653  0.03433051     0.83300
N45         N  0.30930660  0.01046093  0.03116183    -0.77400
C46         C  0.29746422  0.51376065  0.00494152     0.83400
N47         N  0.30299370  0.49958195  0.96796608    -0.79100
Zn48       Zn  0.22684855  0.19909854  0.49786940     1.49700
Zn49       Zn  0.23385173  0.26177091  0.55746092     1.49400
Zn50       Zn  0.29611336  0.26631603  0.50044441     1.49100
Zn51       Zn  0.23290059  0.26390252  0.44642764     1.49500
O52         O  0.24761218  0.24777036  0.50075074    -1.83500
O53         O  0.20119935  0.17932586  0.55803434    -0.74100
O54         O  0.27405889  0.29411032  0.59701974    -0.73900
O55         O  0.30847416  0.22981890  0.50277886    -0.73400
O56         O  0.20673566  0.22185567  0.59873851    -0.74100
O57         O  0.26026121  0.18349183  0.49613139    -0.73700
O58         O  0.31602819  0.29627520  0.55917710    -0.74300
O59         O  0.27199067  0.29265249  0.40562364    -0.73700
O60         O  0.20656922  0.28392566  0.54210600    -0.74500
O61         O  0.31555391  0.29272565  0.43841168    -0.73800
O62         O  0.20922921  0.28894856  0.46428814    -0.74300
O63         O  0.20142602  0.22579883  0.40542764    -0.74200
O64         O  0.19752292  0.18082782  0.43840629    -0.74000
C65         C  0.19625678  0.19122002  0.59484416     0.77800
C66         C  0.30485430  0.30485466  0.59345997     0.78300
C67         C  0.29168922  0.19841515  0.49927995     0.77200
C68         C  0.30235578  0.30102906  0.40512838     0.77600
C69         C  0.19984484  0.29379879  0.50356734     0.78700
C70         C  0.19032355  0.19496342  0.40542752     0.77800
Zn71       Zn  0.30442798  0.41032439  0.77987919     1.49700
Zn72       Zn  0.30513315  0.40933614  0.88976902     1.49400
Zn73       Zn  0.36520304  0.40891635  0.83505382     1.49100
Zn74       Zn  0.36518105  0.47405273  0.84036730     1.49500
O75         O  0.33498553  0.42581925  0.83619127    -1.83500
O76         O  0.25473953  0.38617512  0.79457298    -0.74100
O77         O  0.31652824  0.38089322  0.92890146    -0.73900
O78         O  0.35570539  0.38369179  0.77443222    -0.73400
O79         O  0.25500444  0.38236458  0.87239231    -0.74100
O80         O  0.31215116  0.38070759  0.73696158    -0.73700
O81         O  0.35640836  0.37897125  0.89088625    -0.74300
O82         O  0.41554608  0.49022386  0.84326599    -0.73700
O83         O  0.31282132  0.44697305  0.93002579    -0.74500
O84         O  0.41509123  0.44353662  0.83774652    -0.73800
O85         O  0.35502131  0.49195678  0.89864389    -0.74300
O86         O  0.35632373  0.49259019  0.78089735    -0.74200
O87         O  0.31550367  0.45022435  0.74117324    -0.74000
C88         C  0.23919149  0.37618704  0.83308155     0.77800
C89         C  0.33669687  0.37075547  0.92505067     0.78300
C90         C  0.33525078  0.37422667  0.73955545     0.77200
C91         C  0.43122834  0.47480675  0.84149832     0.77600
C92         C  0.33328946  0.47778907  0.93024924     0.78700
C93         C  0.33673623  0.48073846  0.74522739     0.77800
C94         C  0.34167849  0.35828101  0.70041974     0.80900
N95         N  0.31908140  0.33969057  0.66595445    -0.77400
C96         C  0.32840761  0.32689057  0.63045817     0.83300
N97         N  0.35997318  0.33322545  0.62994504    -0.77400
C98         C  0.38211324  0.35182487  0.66404110     0.83400
N99         N  0.37270419  0.36383840  0.69886449    -0.79100
C100        C  0.32405099  0.01085008  0.62871689     0.80900
N101        N  0.31900592  0.49171450  0.66834720    -0.77400
C102        C  0.33939837  0.50300917  0.70704300     0.83300
N103        N  0.36388142  0.03287836  0.70614897    -0.77400
C104        C  0.36704868  0.05414932  0.67131528     0.83400
N105        N  0.34704042  0.04307451  0.63303642    -0.79100
C106        C  0.34424452  0.32272938  0.02410748     0.80900
N107        N  0.35108771  0.34914173  0.99605093    -0.77400
C108        C  0.33248370  0.34431429  0.95602736     0.83300
N109        N  0.30724279  0.31405475  0.94502280    -0.77400
C110        C  0.30048615  0.28811214  0.97269093     0.83400
N111        N  0.31919169  0.29243456  0.01196220    -0.79100
Zn112      Zn  0.46124327  0.23069092  0.55749090     1.49700
Zn113      Zn  0.46345465  0.22535011  0.44911908     1.49400
Zn114      Zn  0.02456430  0.28936908  0.50871009     1.49100
Zn115      Zn  0.02468722  0.22539099  0.50585637     1.49500
O116        O  0.99421474  0.24191515  0.50237354    -1.83500
O117        O  0.41221982  0.20676311  0.53754872    -0.74100
O118        O  0.47465046  0.26281875  0.40396236    -0.73900
O119        O  0.01453057  0.30540213  0.56780295    -0.73400
O120        O  0.41354212  0.20037581  0.46074470    -0.74100
O121        O  0.47149926  0.27063141  0.59364156    -0.73700
O122        O  0.01630322  0.30943607  0.45136451    -0.74300
O123        O  0.07462422  0.25932651  0.50477493    -0.73700
O124        O  0.47384910  0.19512653  0.41462320    -0.74500
O125        O  0.07454092  0.30569105  0.50923256    -0.73800
O126        O  0.01468616  0.19932340  0.44794216    -0.74300
O127        O  0.01726030  0.19778284  0.56434737    -0.74200
O128        O  0.46800141  0.20221182  0.60221714    -0.74000
C129        C  0.39732367  0.19585737  0.49809233     0.77800
C130        C  0.99823257  0.29946575  0.41407322     0.78300
C131        C  0.49358550  0.30093075  0.59189869     0.77200
C132        C  0.09047180  0.29062394  0.50679705     0.77000
C133        C  0.99647127  0.19215471  0.41091694     0.78700
C134        C  0.48906508  0.19326000  0.60844789     0.77800
Zn135      Zn  0.40386296  0.29634035  0.11010153     1.49700
Zn136      Zn  0.40426594  0.29859478  0.21923220     1.49400
Zn137      Zn  0.46697921  0.35798610  0.16003525     1.49100
Zn138      Zn  0.39947112  0.35583102  0.15872101     1.49500
O139        O  0.41871558  0.32746775  0.16228028    -1.83500
O140        O  0.38036292  0.24721747  0.12887432    -0.74100
O141        O  0.44420868  0.30801148  0.25704169    -0.73900
O142        O  0.48554820  0.35165242  0.09938218    -0.73400
O143        O  0.37916792  0.24925695  0.20655596    -0.74100
O144        O  0.44214273  0.30640729  0.06996899    -0.73700
O145        O  0.48672941  0.34760791  0.21738886    -0.74300
O146        O  0.43388608  0.40584776  0.16022808    -0.73700
O147        O  0.37645424  0.30825499  0.26152896    -0.74500
O148        O  0.48147479  0.40721522  0.16278510    -0.73800
O149        O  0.37244067  0.34596640  0.21817957    -0.74300
O150        O  0.37263134  0.34701836  0.09667998    -0.74200
O151        O  0.37389595  0.30401398  0.06821534    -0.74000
C152        C  0.37223956  0.23275602  0.16880247     0.77800
C153        C  0.47495607  0.32800850  0.25259556     0.78300
C154        C  0.47223809  0.32925889  0.06820233     0.77200
C155        C  0.46542523  0.42229673  0.16205299     0.77600
C156        C  0.36639864  0.32844351  0.25570304     0.78700
C157        C  0.36488191  0.32517234  0.06515964     0.77800
C158        C  0.35004821  0.33481065  0.29416612     0.80900
N159        N  0.35090376  0.36375844  0.29179508    -0.77400
C160        C  0.33812791  0.37289832  0.32591329     0.83300
N161        N  0.32346776  0.35253738  0.36296986    -0.77400
C162        C  0.32236323  0.32336218  0.36672948     0.83400
N163        N  0.33593982  0.31427968  0.33216794    -0.79100
C164        C  0.00572544  0.32325830  0.37631306     0.80900
N165        N  0.48587970  0.30922761  0.32862961    -0.77400
C166        C  0.49732222  0.33003776  0.29077174     0.83300
N167        N  0.02688246  0.36507481  0.30175521    -0.77400
C168        C  0.04738589  0.37007389  0.33914071     0.83400
N169        N  0.03658138  0.34953767  0.37624701    -0.79100
Zn170      Zn  0.25640918  0.02508088  0.54688188     1.49700
Zn171      Zn  0.25830907  0.02263105  0.44118461     1.49400
Zn172      Zn  0.26347617  0.46710685  0.50660765     1.49100
Zn173      Zn  0.19664661  0.46414687  0.49363308     1.49500
O174        O  0.24269193  0.99323101  0.49728602    -1.83500
O175        O  0.27762771  0.07387689  0.52981206    -0.74100
O176        O  0.28556162  0.01085639  0.40123513    -0.73900
O177        O  0.29226597  0.48075236  0.56659137    -0.73400
O178        O  0.28468630  0.07320742  0.45348884    -0.74100
O179        O  0.28796547  0.02082551  0.58664120    -0.73700
O180        O  0.29019888  0.47372932  0.44944396    -0.74300
O181        O  0.18248790  0.41514628  0.49818129    -0.73700
O182        O  0.21798677  0.01206051  0.40248931    -0.74500
O183        O  0.22990416  0.41699095  0.50952792    -0.73800
O184        O  0.18109217  0.47027171  0.42986919    -0.74300
O185        O  0.17416201  0.47309578  0.54682886    -0.74200
O186        O  0.21916183  0.01430726  0.58626332    -0.74000
C187        C  0.28867750  0.08921026  0.49119706     0.77800
C188        C  0.29877407  0.49165026  0.41235524     0.78300
C189        C  0.29984375  0.00219835  0.59105024     0.77200
C190        C  0.19852559  0.40030231  0.50453518     0.77600
C191        C  0.19382062  0.48966774  0.39478240     0.78700
C192        C  0.18876078  0.99284546  0.58752549     0.77800
Zn193      Zn  0.04186598  0.13954515  0.84148948     1.49700
Zn194      Zn  0.10382991  0.19935784  0.78115313     1.49400
Zn195      Zn  0.10543954  0.20182794  0.88968354     1.49100
Zn196      Zn  0.10678663  0.14059020  0.84222410     1.49500
O197        O  0.08947227  0.17041108  0.83827646    -1.83500
O198        O  0.02363840  0.14589853  0.78108591    -0.74100
O199        O  0.12663916  0.24946770  0.79338955    -0.73900
O200        O  0.06766658  0.19118046  0.93037863    -0.73400
O201        O  0.06410938  0.18612202  0.73917621    -0.74100
O202        O  0.02271845  0.14892928  0.89774503    -0.73700
O203        O  0.12740086  0.25083618  0.87124167    -0.74300
O204        O  0.13704162  0.15242526  0.89873550    -0.73700
O205        O  0.13360128  0.18997470  0.74279725    -0.74500
O206        O  0.13773804  0.19624732  0.92825096    -0.73800
O207        O  0.13203343  0.14845021  0.78381616    -0.74300
O208        O  0.07295769  0.09029642  0.84453334    -0.74200
O209        O  0.02624446  0.09027395  0.84389140    -0.74000
C210        C  0.03413776  0.16351154  0.74392795     0.77800
C211        C  0.13403590  0.26572023  0.83161858     0.78300
C212        C  0.03684741  0.17041198  0.92987405     0.77200
C213        C  0.14715355  0.17544902  0.92870479     0.77600
C214        C  0.14065322  0.16743152  0.74793522     0.78700
C215        C  0.04146339  0.07444268  0.84448057     0.77800
C216        C  0.15621754  0.16003644  0.71016870     0.80900
N217        N  0.15423164  0.13055627  0.71219951    -0.77400
C218        C  0.16419569  0.11984648  0.67631221     0.83300
N219        N  0.17695290  0.13916479  0.63747756    -0.77400
C220        C  0.17965573  0.16925362  0.63509290     0.83400
N221        N  0.16893913  0.17960970  0.67149421    -0.79100
C222        C  0.48501231  0.17320431  0.65004126     0.80900
N223        N  0.01598699  0.17514994  0.66711766    -0.77400
C224        C  0.01072684  0.15482725  0.70474025     0.83300
N225        N  0.47282116  0.13833529  0.73115144    -0.77400
C226        C  0.44823591  0.13022180  0.69934942     0.83400
N227        N  0.45430676  0.14791973  0.65907271    -0.79100
Zn228      Zn  0.13665427  0.03533123  0.16004358     1.49700
Zn229      Zn  0.19998152  0.09623617  0.11582029     1.49400
Zn230      Zn  0.13945529  0.10102041  0.15915853     1.49100
Zn231      Zn  0.19767212  0.09705530  0.22201355     1.49500
O232        O  0.16826531  0.08243497  0.16495599    -1.83500
O233        O  0.14414582  0.01528228  0.10325446    -0.74100
O234        O  0.19463486  0.12711527  0.07717220    -0.73900
O235        O  0.08894086  0.06818930  0.15626148    -0.73400
O236        O  0.18953682  0.05887176  0.07589609    -0.74100
O237        O  0.08757296  0.02094991  0.15925880    -0.73700
O238        O  0.15166254  0.13022486  0.10160805    -0.74300
O239        O  0.18747549  0.12556522  0.26188929    -0.73700
O240        O  0.24891443  0.11825325  0.13386004    -0.74500
O241        O  0.14784965  0.12655670  0.21814571    -0.73800
O242        O  0.24790193  0.12104086  0.21122229    -0.74300
O243        O  0.18580927  0.05708135  0.26074509    -0.74200
O244        O  0.14467703  0.01699494  0.21819019    -0.74000
C245        C  0.16732849  0.02874402  0.07389738     0.77800
C246        C  0.17524463  0.13817691  0.07356322     0.78300
C247        C  0.07239644  0.03682609  0.15752187     0.77200
C248        C  0.16582533  0.13381868  0.25550885     0.77600
C249        C  0.26400873  0.12682089  0.17344828     0.78700
C250        C  0.16330224  0.02721555  0.25482167     0.77800
C251        C  0.15815108  0.14931462  0.29318226     0.80900
N252        N  0.12850790  0.14719874  0.28997951    -0.77400
C253        C  0.11815442  0.15867282  0.32433163     0.83300
N254        N  0.13809872  0.17344455  0.36239437    -0.77400
C255        C  0.16798309  0.17570476  0.36648135     0.83400
N256        N  0.17808664  0.16333454  0.33184641    -0.79100
C257        C  0.17358049  0.48291681  0.35194695     0.80900
N258        N  0.14614135  0.45285646  0.34680596    -0.77400
C259        C  0.12771330  0.44505248  0.30651888     0.83300
N260        N  0.13646366  0.46736141  0.27167645    -0.77400
C261        C  0.15507553  0.00388442  0.29301942     0.83400
N262        N  0.17581182  0.00909804  0.33029374    -0.79100
C263        C  0.18278952  0.16210353  0.03688721     0.80900
N264        N  0.16051135  0.15794988  0.00257464    -0.77400
C265        C  0.17063721  0.17859783  0.96484753     0.83300
N266        N  0.20260521  0.20305247  0.96156780    -0.77400
C267        C  0.22473631  0.20636225  0.99569917     0.83400
N268        N  0.21471109  0.18585739  0.03292411    -0.79100
Zn269      Zn  0.12523450  0.43377151  0.81745441     1.49700
Zn270      Zn  0.06480160  0.42784140  0.88320301     1.49400
Zn271      Zn  0.05853036  0.42725670  0.77464285     1.49100
Zn272      Zn  0.06026353  0.36553904  0.82815624     1.49500
O273        O  0.07733997  0.41341108  0.82608952    -1.83500
O274        O  0.14573167  0.46205297  0.87447357    -0.74100
O275        O  0.04287528  0.45534481  0.87094737    -0.73900
O276        O  0.09325085  0.45665106  0.72950833    -0.73400
O277        O  0.10547793  0.45641336  0.92073758    -0.74100
O278        O  0.14013026  0.46073431  0.75562649    -0.73700
O279        O  0.03618113  0.45284174  0.79344010    -0.74300
O280        O  0.03032084  0.34529587  0.76997413    -0.73700
O281        O  0.03653767  0.38905336  0.92598039    -0.74500
O282        O  0.02711485  0.38742149  0.73869129    -0.73800
O283        O  0.03552287  0.34697769  0.89014552    -0.74300
O284        O  0.09663142  0.35304124  0.82747582    -0.74200
O285        O  0.14240032  0.40119720  0.81909879    -0.74000
C286        C  0.13577884  0.46777066  0.91258951     0.77800
C287        C  0.03307291  0.46292231  0.83315806     0.78300
C288        C  0.12386405  0.46745483  0.72529678     0.77200
C289        C  0.01939925  0.35742336  0.73881461     0.77600
C290        C  0.02847508  0.35890192  0.92502459     0.78700
C291        C  0.12802873  0.36998372  0.82390339     0.77800
C292        C  0.49015884  0.32299088  0.62306133     0.80900
N293        N  0.46365891  0.32626373  0.61499442    -0.77400
C294        C  0.45724546  0.34458090  0.64351238     0.83300
N295        N  0.47758505  0.35984081  0.68105393    -0.77400
C296        C  0.99645080  0.33677897  0.70197548     0.83400
N297        N  0.00569375  0.32294372  0.66860749    -0.79100
C298        C  0.17019790  0.99892253  0.62155246     0.80900
N299        N  0.17171737  0.02813792  0.61717943    -0.77400
C300        C  0.16105436  0.03937590  0.65150119     0.83300
N301        N  0.14850987  0.02103804  0.69115584    -0.77400
C302        C  0.14011284  0.48892585  0.68467697     0.83400
N303        N  0.15397290  0.48004561  0.65079417    -0.79100
C304        C  0.49195793  0.32748764  0.03073533     0.80900
N305        N  0.50357370  0.34963038  0.99437233    -0.77400
C306        C  0.01220711  0.33762459  0.96637518     0.83300
N307        N  0.01107274  0.30833817  0.97084560    -0.77400
C308        C  0.51047767  0.29589185  0.99401162     0.83400
N309        N  0.49537775  0.30076992  0.03013835    -0.79100
C310        C  0.17245745  0.00926366  0.04060371     0.80900
N311        N  0.15303102  0.99607932  0.00158038    -0.77400
C312        C  0.16038161  0.48607182  0.94913228     0.83300
N313        N  0.19058507  0.48994258  0.94425771    -0.77400
C314        C  0.21088176  0.99689293  0.01225058     0.83400
N315        N  0.20111411  0.00967747  0.04543341    -0.79100
C316        C  0.48060413  0.01051967  0.16177008     0.03800
C317        C  0.46656979  0.47674142  0.16566077    -0.12400
C318        C  0.48375124  0.45946765  0.16302570     0.01300
C319        C  0.01886472  0.48243470  0.15633732    -0.10900
C320        C  0.03513247  0.01832902  0.15769729     0.03800
C321        C  0.01724083  0.03498749  0.15725332    -0.10300
H322        H  0.43988461  0.46324953  0.16749054     0.09400
H323        H  0.03175576  0.46893274  0.15665099     0.06900
H324        H  0.03041440  0.06162506  0.15610234     0.06700
C325        C  0.30897428  0.17895819  0.49794699     0.03800
C326        C  0.29101638  0.14405719  0.49471698    -0.12400
C327        C  0.30740773  0.12608212  0.49113365     0.01300
C328        C  0.34220874  0.14341961  0.49104840    -0.10900
C329        C  0.36058080  0.17791641  0.49570478     0.03800
C330        C  0.34382960  0.19534034  0.49919423    -0.10300
H331        H  0.26427831  0.13078771  0.49487725     0.09400
H332        H  0.35505661  0.12993118  0.48898874     0.06900
H333        H  0.35816392  0.22187773  0.50238855     0.06700
C334        C  0.18091311  0.31134149  0.50454327     0.03800
C335        C  0.19774336  0.34605512  0.50472953    -0.12400
C336        C  0.18038180  0.36317816  0.50545764     0.01300
C337        C  0.14542676  0.34459947  0.50606206    -0.10900
C338        C  0.12777839  0.30975361  0.50617510     0.03800
C339        C  0.14603272  0.29348737  0.50542759    -0.10300
H340        H  0.22447424  0.35971168  0.50399484     0.09400
H341        H  0.13183580  0.35739064  0.50645302     0.06900
H342        H  0.13315542  0.26685038  0.50539487     0.06700
C343        C  0.01719409  0.48317195  0.83551950     0.03800
C344        C  0.03789201  0.01859062  0.84542079    -0.12400
C345        C  0.02201998  0.03724997  0.84419247     0.01300
C346        C  0.48871490  0.02755353  0.84316806    -0.10900
C347        C  0.46865274  0.49323336  0.84389471     0.03800
C348        C  0.48595252  0.47609558  0.84131266    -0.10300
H349        H  0.06459914  0.03107510  0.84719635     0.09400
H350        H  0.47527572  0.04047449  0.84426858     0.06900
H351        H  0.47232139  0.44959618  0.83746101     0.06700
C352        C  0.14815018  0.35322942  0.82607917     0.03800
C353        C  0.18321404  0.37186296  0.82810698    -0.12400
C354        C  0.20217852  0.35640474  0.83179779     0.01300
C355        C  0.18569312  0.32173468  0.83301272    -0.10900
C356        C  0.15093190  0.30247349  0.83022440     0.03800
C357        C  0.13245638  0.31841738  0.82701771    -0.10300
H358        H  0.19588027  0.39848594  0.82725313     0.09400
H359        H  0.20000395  0.30967038  0.83568814     0.06900
H360        H  0.10575306  0.30356690  0.82539882     0.06700
C361        C  0.35271035  0.14362000  0.17784827     0.03800
C362        C  0.37038884  0.17844795  0.17489762    -0.12400
C363        C  0.35371340  0.19618304  0.17160613     0.01300
C364        C  0.31900825  0.17894508  0.17191993    -0.10900
C365        C  0.30076901  0.14442505  0.17509129     0.03800
C366        C  0.31772111  0.12696555  0.17778377    -0.10300
H367        H  0.39713144  0.19184843  0.17474837     0.09400
H368        H  0.30611805  0.19246273  0.16942055     0.06900
H369        H  0.30353037  0.10034459  0.17960115     0.06700
C370        C  0.16004083  0.08704131  0.68090097    -0.15800
C371        C  0.16508892  0.07211587  0.64558703    -0.31000
H372        H  0.15191916  0.07454531  0.71465194     0.13200
H373        H  0.17332669  0.08454333  0.61182214     0.13800
C374        C  0.09593203  0.41480001  0.30249039    -0.15800
C375        C  0.08122857  0.39729578  0.34074060    -0.31000
H376        H  0.08303976  0.40871978  0.26854627     0.13200
H377        H  0.09407590  0.40338587  0.37472464     0.13800
C378        C  0.25899605  0.23293370  0.99545103    -0.15800
C379        C  0.27018717  0.25692029  0.96338975    -0.31000
H380        H  0.27432965  0.23462003  0.02582744     0.13200
H381        H  0.25478537  0.25549037  0.93325333     0.13800
C382        C  0.39352520  0.08845086  0.67220127    -0.15800
C383        C  0.41667628  0.09998459  0.70627434    -0.31000
H384        H  0.39604295  0.10337545  0.64122605     0.13200
H385        H  0.41425951  0.08503140  0.73716778     0.13800
C386        C  0.42648231  0.34464532  0.63538549    -0.15800
C387        C  0.41568707  0.35754264  0.66647045    -0.31000
H388        H  0.41100494  0.33112877  0.60529596     0.13200
H389        H  0.43105960  0.37079725  0.69678569     0.13800
C390        C  0.24287855  0.99945769  0.01972793    -0.15800
C391        C  0.26808538  0.51660484  0.00719203    -0.31000
H392        H  0.25581471  0.00915788  0.05314194     0.13200
H393        H  0.26440950  0.52637703  0.03928624     0.13800
C394        C  0.00403302  0.24388866  0.98320598    -0.15800
C395        C  0.51494549  0.26746142  0.99339824    -0.31000
H396        H  0.49689044  0.25044520  0.06159889     0.13200
H397        H  0.98657244  0.24475470  0.04988990     0.13800
C398        C  0.32920344  0.41611965  0.35437922    -0.15800
C399        C  0.34035766  0.40477456  0.32139277    -0.31000
H400        H  0.31791861  0.40162703  0.38584579     0.13200
H401        H  0.35147252  0.41922333  0.28982836     0.13800
C402        C  0.08548854  0.15493894  0.31873514    -0.15800
C403        C  0.07184225  0.16242108  0.35306693    -0.31000
H404        H  0.07246744  0.14594008  0.28520564     0.13200
H405        H  0.08486217  0.17138795  0.38660183     0.13800
Zn406      Zn  0.43516284  0.55909684  0.23130157     1.49700
Zn407      Zn  0.37398995  0.56130691  0.18281188     1.49400
Zn408      Zn  0.44107582  0.62703997  0.18981446     1.49100
Zn409      Zn  0.43709840  0.56872440  0.12293053     1.49500
O410        O  0.42191599  0.57929249  0.18138988    -1.83500
O411        O  0.39602714  0.52761135  0.26867522    -0.74100
O412        O  0.35953250  0.59556038  0.18427094    -0.73900
O413        O  0.46712924  0.64059147  0.25282899    -0.73400
O414        O  0.35325719  0.53046010  0.23930650    -0.74100
O415        O  0.46547579  0.59432804  0.27598106    -0.73700
O416        O  0.40690392  0.64258921  0.18877525    -0.74300
O417        O  0.46710564  0.61027267  0.08704806    -0.73700
O418        O  0.35644082  0.53886366  0.12080371    -0.74500
O419        O  0.46950543  0.64938185  0.13271753    -0.73800
O420        O  0.39825593  0.54339003  0.07938511    -0.74300
O421        O  0.46030390  0.54214232  0.13265577    -0.74200
O422        O  0.45748298  0.53407631  0.20984627    -0.74000
C423        C  0.36583194  0.51947635  0.26951803     0.77800
C424        C  0.37537655  0.62688431  0.18580298     0.78300
C425        C  0.47479630  0.62447927  0.28197019     0.77200
C426        C  0.47663249  0.64026282  0.09489075     0.77600
C427        C  0.36799585  0.53446727  0.08329628     0.78700
C428        C  0.46590628  0.52985241  0.16955125     0.77800
C429        C  0.00533035  0.67347367  0.37509182     0.80900
N430        N  0.03332736  0.67230381  0.37998826    -0.77400
C431        C  0.04243936  0.65902380  0.34642019     0.83300
N432        N  0.02290028  0.64597311  0.30752335    -0.77400
C433        C  0.49551995  0.64039838  0.32369526     0.83400
N434        N  0.48728602  0.65603229  0.35560321    -0.79100
C435        C  0.30970856  0.98196029  0.37000317     0.80900
N436        N  0.30794580  0.95251678  0.37211025    -0.77400
C437        C  0.32077263  0.94330801  0.33799414     0.83300
N438        N  0.33643576  0.96412961  0.30172628    -0.77400
C439        C  0.34569831  0.49643448  0.30649595     0.83400
N440        N  0.33051696  0.50485364  0.33892954    -0.79100
C441        C  0.02307019  0.67808190  0.96883331     0.80900
N442        N  0.02606601  0.70792516  0.96738355    -0.77400
C443        C  0.01212102  0.71683670  0.99999340     0.83300
N444        N  0.49418531  0.69378647  0.06068413    -0.77400
C445        C  0.49390527  0.66507099  0.05795813     0.83400
N446        N  0.00607143  0.65652492  0.00412009    -0.79100
C447        C  0.33094666  0.98983502  0.95963522     0.80900
N448        N  0.35070703  0.00343843  0.99834634    -0.77400
C449        C  0.34571518  0.52136240  0.04253554     0.83300
N450        N  0.31860636  0.52416913  0.04204895    -0.77400
C451        C  0.28991545  0.99670709  0.99214877     0.83400
N452        N  0.30085557  0.98644696  0.95711803    -0.79100
Zn453      Zn  0.22944336  0.69917343  0.49623588     1.49700
Zn454      Zn  0.23759467  0.76242412  0.55533891     1.49400
Zn455      Zn  0.29819624  0.76714291  0.49328231     1.49100
Zn456      Zn  0.23248591  0.76224785  0.44456685     1.49500
O457        O  0.24959431  0.74771983  0.49775729    -1.83500
O458        O  0.20302761  0.67973851  0.55622725    -0.74100
O459        O  0.27947211  0.79521005  0.59143537    -0.73900
O460        O  0.31168939  0.73167895  0.49630585    -0.73400
O461        O  0.21044212  0.72275472  0.59766045    -0.74100
O462        O  0.26371041  0.68477600  0.49586293    -0.73700
O463        O  0.32052988  0.79894174  0.54915951    -0.74300
O464        O  0.27007371  0.79235793  0.40282095    -0.73700
O465        O  0.21029291  0.78497892  0.54173860    -0.74500
O466        O  0.31478422  0.79207115  0.42980196    -0.73800
O467        O  0.20755024  0.78558449  0.46369327    -0.74300
O468        O  0.20195417  0.72350760  0.40371265    -0.74200
O469        O  0.20076508  0.67971749  0.43630786    -0.74000
C470        C  0.19857199  0.69187055  0.59325254     0.77800
C471        C  0.31024370  0.80722443  0.58472380     0.78300
C472        C  0.29519404  0.70019592  0.49623192     0.77200
C473        C  0.30024165  0.80063617  0.39904159     0.77600
C474        C  0.20072183  0.79248633  0.50350157     0.78700
C475        C  0.19243747  0.69299670  0.40343494     0.77800
Zn476      Zn  0.30697119  0.90774552  0.77351531     1.49700
Zn477      Zn  0.30878389  0.90487954  0.88228625     1.49400
Zn478      Zn  0.36890511  0.90687573  0.82717024     1.49100
Zn479      Zn  0.36743640  0.97095522  0.83353185     1.49500
O480        O  0.33800486  0.92271169  0.82895284    -1.83500
O481        O  0.25723863  0.88362347  0.78867276    -0.74100
O482        O  0.32006628  0.87607819  0.91976672    -0.73900
O483        O  0.36075336  0.88429302  0.76491475    -0.73400
O484        O  0.25843249  0.87992982  0.86641796    -0.74100
O485        O  0.31593036  0.87997588  0.72927731    -0.73700
O486        O  0.36072852  0.87579866  0.88167690    -0.74300
O487        O  0.41738685  0.98841364  0.83590555    -0.73700
O488        O  0.31805975  0.94150310  0.92361360    -0.74500
O489        O  0.41823712  0.94239181  0.83113134    -0.73800
O490        O  0.35806660  0.98803202  0.89214528    -0.74300
O491        O  0.35796098  0.98994332  0.77566355    -0.74200
O492        O  0.31725314  0.94767234  0.73584656    -0.74000
C493        C  0.24214200  0.87425710  0.82760909     0.77800
C494        C  0.34084745  0.86678339  0.91576200     0.78300
C495        C  0.34021914  0.87524331  0.73021097     0.77200
C496        C  0.43362498  0.97364613  0.83475334     0.77600
C497        C  0.33738161  0.97244202  0.92431716     0.78700
C498        C  0.33821558  0.97819028  0.74023262     0.77800
C499        C  0.34781060  0.86205612  0.68918465     0.80900
N500        N  0.32493837  0.84198522  0.65632314    -0.77400
C501        C  0.33465050  0.83076748  0.61946989     0.83300
N502        N  0.36707886  0.83999479  0.61607689    -0.77400
C503        C  0.38964718  0.86038752  0.64869934     0.83400
N504        N  0.37970852  0.87090670  0.68477810    -0.79100
C505        C  0.32257397  0.51307384  0.63315909     0.80900
N506        N  0.32045366  0.98934663  0.66366542    -0.77400
C507        C  0.34057116  0.00057997  0.70260556     0.83300
N508        N  0.36309840  0.53523401  0.70995598    -0.77400
C509        C  0.36637674  0.55639078  0.67483049     0.83400
N510        N  0.34597920  0.54524885  0.63687133    -0.79100
C511        C  0.34741757  0.82086022  0.01835806     0.80900
N512        N  0.35479430  0.84665071  0.98864148    -0.77400
C513        C  0.33744589  0.84082207  0.94708874     0.83300
N514        N  0.31260833  0.81027842  0.93648012    -0.77400
C515        C  0.30520143  0.78496977  0.96585431     0.83400
N516        N  0.32282747  0.79024942  0.00653546    -0.79100
Zn517      Zn  0.46492329  0.73294152  0.55913218     1.49700
Zn518      Zn  0.46724824  0.72542720  0.45154739     1.49400
Zn519      Zn  0.02583761  0.78816917  0.50787663     1.49100
Zn520      Zn  0.02503852  0.72306222  0.50809685     1.49500
O521        O  0.99543000  0.74077056  0.50324705    -1.83500
O522        O  0.41590954  0.71033946  0.53867348    -0.74100
O523        O  0.47763454  0.76123301  0.40339859    -0.73900
O524        O  0.01933189  0.80640172  0.56790404    -0.73400
O525        O  0.41746216  0.70043785  0.46317652    -0.74100
O526        O  0.47668060  0.77318410  0.59541586    -0.73700
O527        O  0.01497234  0.80744582  0.45221326    -0.74300
O528        O  0.07506014  0.75697829  0.50765321    -0.73700
O529        O  0.47838007  0.69503113  0.42008870    -0.74500
O530        O  0.07508853  0.80359436  0.50528508    -0.73800
O531        O  0.01575431  0.69639878  0.45001564    -0.74300
O532        O  0.01652288  0.69605159  0.56804687    -0.74200
O533        O  0.46993024  0.70344217  0.60391609    -0.74000
C534        C  0.40112283  0.69780467  0.49965311     0.77800
C535        C  0.99623147  0.79765310  0.41555688     0.78300
C536        C  0.49788582  0.80356414  0.59073552     0.77200
C537        C  0.09089088  0.78832652  0.50611963     0.77000
C538        C  0.99847806  0.69007407  0.41207520     0.78700
C539        C  0.49117062  0.69494293  0.61197005     0.77800
Zn540      Zn  0.40561286  0.79622406  0.11011904     1.49700
Zn541      Zn  0.40476140  0.79949095  0.21905499     1.49400
Zn542      Zn  0.46756771  0.85858299  0.16007365     1.49100
Zn543      Zn  0.39949852  0.85533924  0.15506560     1.49500
O544        O  0.41942353  0.82769088  0.16150851    -1.83500
O545        O  0.38244798  0.74732896  0.12959403    -0.74100
O546        O  0.44449347  0.80869668  0.25778069    -0.73900
O547        O  0.48681973  0.85319862  0.09941725    -0.73400
O548        O  0.38018137  0.75004597  0.20702569    -0.74100
O549        O  0.44439507  0.80674766  0.07118665    -0.73700
O550        O  0.48704669  0.84749186  0.21724226    -0.74300
O551        O  0.43322669  0.90522815  0.15701187    -0.73700
O552        O  0.37597699  0.80941643  0.25890650    -0.74500
O553        O  0.48127734  0.90760768  0.16268176    -0.73800
O554        O  0.37083591  0.84530029  0.21255393    -0.74300
O555        O  0.37423624  0.84637342  0.09142512    -0.74200
O556        O  0.37617764  0.80305122  0.06617636    -0.74000
C557        C  0.37400630  0.73323511  0.16971787     0.77800
C558        C  0.47531968  0.82795986  0.25257832     0.78300
C559        C  0.47409739  0.83039054  0.06882591     0.77200
C560        C  0.46468969  0.92213985  0.16016457     0.77600
C561        C  0.36478231  0.82851319  0.25078435     0.78700
C562        C  0.36719320  0.82410838  0.06087578     0.77800
C563        C  0.34637152  0.83395502  0.28708643     0.80900
N564        N  0.34357839  0.86089135  0.28157163    -0.77400
C565        C  0.32869043  0.86892622  0.31404094     0.83300
N566        N  0.31564983  0.84942551  0.35236859    -0.77400
C567        C  0.31818635  0.82234175  0.35908245     0.83400
N568        N  0.33394943  0.81451425  0.32643754    -0.79100
C569        C  0.00069381  0.82276424  0.38103221     0.80900
N570        N  0.48724722  0.80789178  0.32716245    -0.77400
C571        C  0.49813731  0.82886073  0.28935643     0.83300
N572        N  0.01724694  0.87040462  0.31503129    -0.77400
C573        C  0.03567715  0.87673950  0.35512086     0.83400
N574        N  0.02728423  0.85301523  0.38767819    -0.79100
Zn575      Zn  0.25647601  0.52704587  0.54591571     1.49700
Zn576      Zn  0.26193703  0.52491881  0.43984446     1.49400
Zn577      Zn  0.26237371  0.96530972  0.50447840     1.49100
Zn578      Zn  0.19468540  0.96185628  0.49953443     1.49500
O579        O  0.24455216  0.49551293  0.49598190    -1.83500
O580        O  0.27999980  0.57598559  0.52860935    -0.74100
O581        O  0.29121805  0.51361307  0.40468025    -0.73900
O582        O  0.29235623  0.97854718  0.56300197    -0.73400
O583        O  0.28787003  0.57543922  0.45242769    -0.74100
O584        O  0.28643832  0.52234347  0.58931053    -0.73700
O585        O  0.28749660  0.97221279  0.44533725    -0.74300
O586        O  0.18126947  0.91282434  0.50057493    -0.73700
O587        O  0.22380132  0.51312842  0.39484947    -0.74500
O588        O  0.22927610  0.91529699  0.50771495    -0.73800
O589        O  0.17579668  0.97041387  0.44032264    -0.74300
O590        O  0.17466845  0.97002586  0.55709626    -0.74200
O591        O  0.21709066  0.51635669  0.58122826    -0.74000
C592        C  0.29190169  0.59136148  0.49024373     0.77800
C593        C  0.29407906  0.98947189  0.40770534     0.78300
C594        C  0.29868995  0.50408028  0.59474997     0.77200
C595        C  0.19783324  0.89831655  0.50458405     0.77600
C596        C  0.18742943  0.99051496  0.40570057     0.78700
C597        C  0.18657110  0.49498683  0.57876892     0.77800
Zn598      Zn  0.04321797  0.64019189  0.84442263     1.49700
Zn599      Zn  0.10416925  0.69910199  0.78084288     1.49400
Zn600      Zn  0.10861487  0.70248423  0.88953280     1.49100
Zn601      Zn  0.10784456  0.64045022  0.84090709     1.49500
O602        O  0.09095425  0.67059997  0.83853425    -1.83500
O603        O  0.02347726  0.64704144  0.78585689    -0.74100
O604        O  0.12701986  0.74913525  0.79239855    -0.73900
O605        O  0.07190657  0.69282721  0.93176531    -0.73400
O606        O  0.06340647  0.68541598  0.74107408    -0.74100
O607        O  0.02587742  0.64982575  0.90284758    -0.73700
O608        O  0.13036075  0.75123056  0.87023005    -0.74300
O609        O  0.13882338  0.65201814  0.89718871    -0.73700
O610        O  0.13370090  0.69025283  0.74086767    -0.74500
O611        O  0.14156217  0.69680233  0.92689163    -0.73800
O612        O  0.13282348  0.64899710  0.78166684    -0.74300
O613        O  0.07287295  0.58984411  0.84169044    -0.74200
O614        O  0.02666755  0.59065356  0.84481121    -0.74000
C615        C  0.03329543  0.66388458  0.74793829     0.77800
C616        C  0.13572929  0.76570849  0.83038308     0.78300
C617        C  0.04114002  0.67209817  0.93368877     0.77200
C618        C  0.15018316  0.67537267  0.92690177     0.77600
C619        C  0.14101413  0.66788582  0.74565470     0.78700
C620        C  0.04132511  0.57435663  0.84278305     0.77800
C621        C  0.15560641  0.65996502  0.70702637     0.80900
N622        N  0.15023258  0.62908252  0.70674589    -0.77400
C623        C  0.15882614  0.61782919  0.66997457     0.83300
N624        N  0.17393956  0.63808811  0.63273786    -0.77400
C625        C  0.18022121  0.66959849  0.63263643     0.83400
N626        N  0.17056195  0.68048418  0.66977867    -0.79100
C627        C  0.48614767  0.67467863  0.65367543     0.80900
N628        N  0.01494565  0.67479139  0.67091835    -0.77400
C629        C  0.00870679  0.65594388  0.71054956     0.83300
N630        N  0.47276494  0.63959766  0.73479192    -0.77400
C631        C  0.44842689  0.63203205  0.70268843     0.83400
N632        N  0.45509872  0.64984820  0.66239379    -0.79100
Zn633      Zn  0.13956345  0.53295945  0.14961933     1.49700
Zn634      Zn  0.20444491  0.59476738  0.11213121     1.49400
Zn635      Zn  0.14259495  0.59929671  0.15560732     1.49100
Zn636      Zn  0.19931356  0.59372170  0.21792675     1.49500
O637        O  0.17103800  0.58005946  0.15961452    -1.83500
O638        O  0.14774382  0.51600016  0.08780838    -0.74100
O639        O  0.19858298  0.62568905  0.07383876    -0.73900
O640        O  0.09182921  0.56655539  0.15193043    -0.73400
O641        O  0.19667630  0.55881407  0.06978047    -0.74100
O642        O  0.08976296  0.51890360  0.15148732    -0.73700
O643        O  0.15581110  0.62925978  0.09843602    -0.74300
O644        O  0.18775841  0.62006410  0.26103518    -0.73700
O645        O  0.25304300  0.61780139  0.13256392    -0.74500
O646        O  0.15027939  0.62394494  0.21615862    -0.73800
O647        O  0.24995648  0.61905835  0.20975444    -0.74300
O648        O  0.18816505  0.55228775  0.25101057    -0.74200
O649        O  0.14934137  0.51251761  0.20495358    -0.74000
C650        C  0.17315510  0.52977809  0.06195401     0.77800
C651        C  0.17935798  0.63700461  0.07028944     0.78300
C652        C  0.07484912  0.53516484  0.15184041     0.77200
C653        C  0.16701928  0.62950951  0.25455184     0.77600
C654        C  0.26712702  0.62589397  0.17286744     0.78700
C655        C  0.16792842  0.52218692  0.24185547     0.77800
C656        C  0.15922568  0.64483303  0.29274531     0.80900
N657        N  0.12959314  0.64286586  0.28963402    -0.77400
C658        C  0.11972685  0.65528247  0.32345948     0.83300
N659        N  0.14015614  0.67083048  0.36074025    -0.77400
C660        C  0.16996870  0.67297936  0.36489733     0.83400
N661        N  0.17963023  0.65970070  0.33085368    -0.79100
C662        C  0.16497197  0.98757563  0.36721504     0.80900
N663        N  0.13350250  0.96173654  0.36694784    -0.77400
C664        C  0.11299890  0.95715305  0.32977133     0.83300
N665        N  0.12400008  0.97794447  0.29301276    -0.77400
C666        C  0.16339939  0.49758484  0.27663325     0.83400
N667        N  0.18221988  0.50561084  0.31683557    -0.79100
C668        C  0.18697343  0.66084848  0.03327065     0.80900
N669        N  0.16424073  0.65754503  0.00018260    -0.77400
C670        C  0.17414139  0.67804131  0.96222297     0.83300
N671        N  0.20640237  0.70156685  0.95759871    -0.77400
C672        C  0.22895451  0.70404767  0.99052044     0.83400
N673        N  0.21909108  0.68365595  0.02787975    -0.79100
Zn674      Zn  0.13121532  0.93606283  0.82887360     1.49700
Zn675      Zn  0.06976484  0.92999169  0.89065440     1.49400
Zn676      Zn  0.06404090  0.93041742  0.78280513     1.49100
Zn677      Zn  0.06454918  0.86757364  0.83210754     1.49500
O678        O  0.08259465  0.91580406  0.83384603    -1.83500
O679        O  0.15264439  0.96201384  0.88935505    -0.74100
O680        O  0.04712729  0.95755844  0.87928097    -0.73900
O681        O  0.10009185  0.96073913  0.74043576    -0.73400
O682        O  0.11039617  0.95676614  0.93030594    -0.74100
O683        O  0.14650384  0.96418302  0.76827435    -0.73700
O684        O  0.04006317  0.95451000  0.80188272    -0.74300
O685        O  0.03550432  0.84868717  0.77172429    -0.73700
O686        O  0.04079906  0.89015925  0.93073438    -0.74500
O687        O  0.03374911  0.89200876  0.74284070    -0.73800
O688        O  0.03907834  0.84805871  0.89354405    -0.74300
O689        O  0.10067033  0.85465132  0.83039002    -0.74200
O690        O  0.14712850  0.90262061  0.82591195    -0.74000
C691        C  0.14098110  0.96691040  0.92645307     0.77800
C692        C  0.03647948  0.96436173  0.84150299     0.78300
C693        C  0.13073114  0.97118225  0.73738839     0.77200
C694        C  0.02572514  0.86197346  0.74065937     0.77600
C695        C  0.03222608  0.85989331  0.92880566     0.78700
C696        C  0.13215822  0.87124951  0.82767069     0.77800
C697        C  0.49473469  0.82631949  0.62042931     0.80900
N698        N  0.47064147  0.83250797  0.60806928    -0.77400
C699        C  0.46413826  0.85146598  0.63498187     0.83300
N700        N  0.48215739  0.86458664  0.67528193    -0.77400
C701        C  0.00369372  0.84284489  0.70136213     0.83400
N702        N  0.01185868  0.82645999  0.67043815    -0.79100
C703        C  0.16584623  0.49906352  0.61136616     0.80900
N704        N  0.16510632  0.52713600  0.60694000    -0.77400
C705        C  0.15188672  0.53631553  0.64045829     0.83300
N706        N  0.13906752  0.51703231  0.67929335    -0.77400
C707        C  0.14747556  0.99190619  0.69658924     0.83400
N708        N  0.15861461  0.98079420  0.66174726    -0.79100
C709        C  0.49399767  0.82893801  0.03136188     0.80900
N710        N  0.50633541  0.85156236  0.99557787    -0.77400
C711        C  0.01580412  0.83860976  0.96995413     0.83300
N712        N  0.01515145  0.80960854  0.97528511    -0.77400
C713        C  0.51097691  0.79655084  0.99333760     0.83400
N714        N  0.49626605  0.80161992  0.02971123    -0.79100
C715        C  0.17724796  0.51275432  0.02241861     0.80900
N716        N  0.15328009  0.49712887  0.98863034    -0.77400
C717        C  0.16278968  0.98320519  0.96735318     0.83300
N718        N  0.19187835  0.98376545  0.97268754    -0.77400
C719        C  0.21406610  0.50484291  0.97784698     0.83400
N720        N  0.20753655  0.51661829  0.01663740    -0.79100
C721        C  0.48366276  0.51148618  0.16589087     0.03800
C722        C  0.46433408  0.97581114  0.16250203    -0.12400
C723        C  0.48222683  0.95922856  0.16028763     0.01300
C724        C  0.01720911  0.98350787  0.15941159    -0.10900
C725        C  0.03736181  0.51722245  0.15310191     0.03800
C726        C  0.01977552  0.53435940  0.15253235    -0.10300
H727        H  0.43767514  0.96177043  0.16476723     0.09400
H728        H  0.03053577  0.97043757  0.15959251     0.06900
H729        H  0.03324038  0.56096646  0.15030039     0.06700
C730        C  0.31275225  0.68106716  0.49593931     0.03800
C731        C  0.29481818  0.64624234  0.49268317    -0.12400
C732        C  0.31111876  0.62819999  0.49046964     0.01300
C733        C  0.34595076  0.64541049  0.49192993    -0.10900
C734        C  0.36436746  0.67995272  0.49657841     0.03800
C735        C  0.34760286  0.69746959  0.49850398    -0.10300
H736        H  0.26807153  0.63302092  0.49169600     0.09400
H737        H  0.35873925  0.63181861  0.49090104     0.06900
H738        H  0.36187457  0.72401672  0.50159680     0.06700
C739        C  0.18148434  0.80969366  0.50516645     0.03800
C740        C  0.19797883  0.84442583  0.50531793    -0.12400
C741        C  0.18024328  0.86121749  0.50531627     0.01300
C742        C  0.14537015  0.84231713  0.50541259    -0.10900
C743        C  0.12809598  0.80750955  0.50560528     0.03800
C744        C  0.14660124  0.79151880  0.50541458    -0.10300
H745        H  0.22471370  0.85833934  0.50491579     0.09400
H746        H  0.13152669  0.85485816  0.50545170     0.06900
H747        H  0.13393099  0.76489134  0.50524600     0.06700
C748        C  0.01950867  0.98381831  0.84323733     0.03800
C749        C  0.03628031  0.51787878  0.83882346    -0.12400
C750        C  0.02106627  0.53706754  0.84073853     0.01300
C751        C  0.48739044  0.52794454  0.84847500    -0.10900
C752        C  0.47082216  0.99287618  0.83802834     0.03800
C753        C  0.48870868  0.97642700  0.83627571    -0.10300
H754        H  0.06296407  0.52986371  0.83951178     0.09400
H755        H  0.47453477  0.54142180  0.85010398     0.06900
H756        H  0.47564570  0.94995665  0.83206870     0.06700
C757        C  0.15167556  0.85385168  0.82706291     0.03800
C758        C  0.18680766  0.87179373  0.82667332    -0.12400
C759        C  0.20509979  0.85553240  0.82759901     0.01300
C760        C  0.18788276  0.82089605  0.82856517    -0.10900
C761        C  0.15312135  0.80239472  0.82841056     0.03800
C762        C  0.13528972  0.81900229  0.82775716    -0.10300
H763        H  0.20002994  0.89843594  0.82614251     0.09400
H764        H  0.20164049  0.80823027  0.82942274     0.06900
H765        H  0.10856559  0.80463563  0.82816042     0.06700
C766        C  0.35671755  0.64505800  0.18270111     0.03800
C767        C  0.37363083  0.67981556  0.17880648    -0.12400
C768        C  0.35620745  0.69672171  0.17328992     0.01300
C769        C  0.32149309  0.67873867  0.17207824    -0.10900
C770        C  0.30392558  0.64427027  0.17633176     0.03800
C771        C  0.32164758  0.62762930  0.18148985    -0.10300
H772        H  0.40037887  0.69380480  0.17954830     0.09400
H773        H  0.30807179  0.69164464  0.16767089     0.06900
H774        H  0.30800258  0.60102444  0.18395012     0.06700
C775        C  0.15158651  0.58378428  0.67235743    -0.15800
C776        C  0.15509169  0.56876297  0.63570411    -0.31000
H777        H  0.14364891  0.57092866  0.70589878     0.13200
H778        H  0.16325735  0.58168333  0.60225674     0.13800
C779        C  0.07942322  0.92937280  0.32706854    -0.15800
C780        C  0.06664004  0.90758286  0.36192092    -0.31000
H781        H  0.06561163  0.92586477  0.29426341     0.13200
H782        H  0.08052053  0.91098085  0.39462393     0.13800
C783        C  0.26352975  0.72996726  0.98932955    -0.15800
C784        C  0.27488212  0.75369165  0.95686560    -0.31000
H785        H  0.27899227  0.73164131  0.01953447     0.13200
H786        H  0.25948145  0.75212499  0.92665687     0.13800
C787        C  0.39349450  0.59054354  0.67499566    -0.15800
C788        C  0.41642912  0.60216077  0.70945405    -0.31000
H789        H  0.39655302  0.60518447  0.64351072     0.13200
H790        H  0.41343573  0.58746489  0.74084978     0.13800
C791        C  0.43466734  0.85327215  0.62264519    -0.15800
C792        C  0.42398483  0.86804752  0.65043833    -0.31000
H793        H  0.41920129  0.83839129  0.59339710     0.13200
H794        H  0.43944730  0.88277532  0.67980403     0.13800
C795        C  0.24543644  0.50606903  0.97252144    -0.15800
C796        C  0.25692862  0.99200840  0.98620900    -0.31000
H797        H  0.24898591  0.49610211  0.94053422     0.13200
H798        H  0.24402864  0.98244498  0.95273410     0.13800
C799        C  0.01508709  0.74898993  0.99407057    -0.15800
C800        C  0.51437040  0.76755109  0.99213748    -0.31000
H801        H  0.49525543  0.75026213  0.05983279     0.13200
H802        H  0.98564221  0.74389126  0.05128131     0.13800
C803        C  0.31818204  0.91120285  0.34194462    -0.15800
C804        C  0.32859455  0.89966140  0.30810062    -0.31000
H805        H  0.30792453  0.89701167  0.37398542     0.13200
H806        H  0.33885979  0.91386134  0.27606878     0.13800
C807        C  0.08707039  0.65184621  0.31832539    -0.15800
C808        C  0.07417023  0.66053636  0.35244015    -0.31000
H809        H  0.07337648  0.64193346  0.28548407     0.13200
H810        H  0.08786616  0.67037052  0.38530395     0.13800
Zn811      Zn  0.93051440  0.06495976  0.21682451     1.49700
Zn812      Zn  0.86822096  0.06484161  0.16415110     1.49400
Zn813      Zn  0.93615815  0.13179318  0.16871067     1.49100
Zn814      Zn  0.93232415  0.07112982  0.10846121     1.49500
O815        O  0.91669872  0.08334183  0.16451094    -1.83500
O816        O  0.89109235  0.03345369  0.25459550    -0.74100
O817        O  0.85421207  0.09959825  0.17005173    -0.73900
O818        O  0.96487911  0.14803377  0.22882536    -0.73400
O819        O  0.84763409  0.03278270  0.22017527    -0.74100
O820        O  0.96035090  0.10192097  0.25901897    -0.73700
O821        O  0.90173773  0.14670796  0.17201071    -0.74300
O822        O  0.96256824  0.11199203  0.07120017    -0.73700
O823        O  0.85050950  0.04349001  0.09975056    -0.74500
O824        O  0.96279489  0.15301163  0.10905824    -0.73800
O825        O  0.89338081  0.04563422  0.06434183    -0.74300
O826        O  0.95656421  0.04517366  0.12162786    -0.74200
O827        O  0.95542671  0.04127878  0.19935585    -0.74000
C828        C  0.86036436  0.02349427  0.25280653     0.77800
C829        C  0.87019045  0.13097147  0.17222918     0.78300
C830        C  0.97159463  0.13271767  0.26060596     0.77200
C831        C  0.97088445  0.14212029  0.07408786     0.77600
C832        C  0.86327986  0.03819430  0.06423907     0.78700
C833        C  0.96383272  0.03555478  0.15999192     0.77800
C834        C  0.50034788  0.16688420  0.38998595     0.80900
N835        N  0.52740555  0.16432294  0.39720298    -0.77400
C836        C  0.53568032  0.14887874  0.36596087     0.83300
N837        N  0.51637826  0.13526107  0.32702897    -0.77400
C838        C  0.99358260  0.15030889  0.30025536     0.83400
N839        N  0.98437808  0.16398912  0.33399869    -0.79100
C840        C  0.81317521  0.49057240  0.36522336     0.80900
N841        N  0.81445023  0.46295705  0.37154577    -0.77400
C842        C  0.82873347  0.45361458  0.34031131     0.83300
N843        N  0.84301616  0.47268145  0.30175795    -0.77400
C844        C  0.83969491  0.00054277  0.28984928     0.83400
N845        N  0.82515862  0.00985268  0.32236178    -0.79100
C846        C  0.51926524  0.18127018  0.98340334     0.80900
N847        N  0.52121294  0.21057537  0.98893565    -0.77400
C848        C  0.50786056  0.21618616  0.02659324     0.83300
N849        N  0.98864170  0.19307587  0.02904777    -0.77400
C850        C  0.98858503  0.16437231  0.03442509     0.83400
N851        N  0.50377453  0.15704941  0.01648774    -0.79100
C852        C  0.83622030  0.50415009  0.94475666     0.80900
N853        N  0.85358783  0.51323522  0.98620888    -0.77400
C854        C  0.84337832  0.02493303  0.02065563     0.83300
N855        N  0.81557301  0.02658877  0.01361630    -0.77400
C856        C  0.79900731  0.51823968  0.97307529     0.83400
N857        N  0.80911770  0.50651929  0.93881984    -0.79100
Zn858      Zn  0.72759221  0.20180413  0.50495221     1.49700
Zn859      Zn  0.73331684  0.26560151  0.55805232     1.49400
Zn860      Zn  0.79518365  0.26880013  0.49978493     1.49100
Zn861      Zn  0.72990710  0.26351383  0.44726130     1.49500
O862        O  0.74666678  0.25001111  0.50240642    -1.83500
O863        O  0.70421902  0.18517686  0.56771133    -0.74100
O864        O  0.77371559  0.29539888  0.59765892    -0.73900
O865        O  0.80936423  0.23352640  0.49626342    -0.73400
O866        O  0.70522745  0.22763507  0.60226739    -0.74100
O867        O  0.76165604  0.18676310  0.50035331    -0.73700
O868        O  0.81477450  0.29462525  0.56124556    -0.74300
O869        O  0.76826730  0.29478661  0.40679124    -0.73700
O870        O  0.70791358  0.28945119  0.54163065    -0.74500
O871        O  0.81330737  0.29821759  0.44031430    -0.73800
O872        O  0.70360326  0.28634177  0.46371724    -0.74300
O873        O  0.70043538  0.22326941  0.40798845    -0.74200
O874        O  0.69635379  0.18055555  0.44878857    -0.74000
C875        C  0.69733950  0.19755484  0.60218208     0.77800
C876        C  0.80377111  0.30292765  0.59594027     0.78300
C877        C  0.79301334  0.20203317  0.49667005     0.77200
C878        C  0.79923885  0.30571184  0.40729989     0.77600
C879        C  0.69762081  0.29519435  0.50267281     0.78700
C880        C  0.68928488  0.19251127  0.41281204     0.77800
Zn881      Zn  0.80336875  0.40495172  0.77400075     1.49700
Zn882      Zn  0.80355172  0.41235592  0.88026957     1.49400
Zn883      Zn  0.86164547  0.40292174  0.83964872     1.49100
Zn884      Zn  0.86575341  0.47006776  0.82652720     1.49500
O885        O  0.83387808  0.42251373  0.82963455    -1.83500
O886        O  0.75372179  0.38152080  0.78715821    -0.74100
O887        O  0.80917520  0.38363747  0.92494785    -0.73900
O888        O  0.85112463  0.37283187  0.78368092    -0.73400
O889        O  0.75406213  0.39057720  0.86324713    -0.74100
O890        O  0.81186944  0.37381476  0.73887445    -0.73700
O891        O  0.85105666  0.37802392  0.90290198    -0.74300
O892        O  0.91470947  0.48424200  0.82897415    -0.73700
O893        O  0.81668561  0.45248933  0.91522312    -0.74500
O894        O  0.91209475  0.43660710  0.83950737    -0.73800
O895        O  0.85995699  0.49395545  0.87994051    -0.74300
O896        O  0.85652340  0.48508121  0.76519747    -0.74200
O897        O  0.81376984  0.44212353  0.72949832    -0.74000
C898        C  0.73828660  0.37886679  0.82462151     0.77800
C899        C  0.82845923  0.37257475  0.93172261     0.78300
C900        C  0.83235881  0.36428916  0.74682741     0.77200
C901        C  0.92919567  0.46789600  0.83487463     0.77600
C902        C  0.83889091  0.48257924  0.91246054     0.78700
C903        C  0.83616981  0.47235666  0.73065063     0.77800
C904        C  0.83735001  0.34557179  0.71083368     0.80900
N905        N  0.81741357  0.33316476  0.67166220    -0.77400
C906        C  0.82590910  0.31945088  0.63678314     0.83300
N907        N  0.85418262  0.31857296  0.64146167    -0.77400
C908        C  0.87371268  0.33088102  0.68053088     0.83400
N909        N  0.86518310  0.34419078  0.71473876    -0.79100
C910        C  0.82444534  0.00412146  0.61488204     0.80900
N911        N  0.81763862  0.48372926  0.65434336    -0.77400
C912        C  0.84003057  0.49363592  0.69072891     0.83300
N913        N  0.87133258  0.02162797  0.68298721    -0.77400
C914        C  0.87735542  0.04074598  0.64431502     0.83400
N915        N  0.85384088  0.03214430  0.61070778    -0.79100
C916        C  0.83488391  0.33210576  0.04177262     0.80900
N917        N  0.84460191  0.35219169  0.00297849    -0.77400
C918        C  0.82115160  0.35083705  0.97236431     0.83300
N919        N  0.78886479  0.33008888  0.98083757    -0.77400
C920        C  0.77925493  0.30999387  0.01854961     0.83400
N921        N  0.80231236  0.31084485  0.04904845    -0.79100
Zn922      Zn  0.96229656  0.22302532  0.55220342     1.49700
Zn923      Zn  0.96518580  0.22919183  0.44491173     1.49400
Zn924      Zn  0.52273812  0.29000922  0.50613719     1.49100
Zn925      Zn  0.52186473  0.22489662  0.51642238     1.49500
O926        O  0.49230946  0.24251276  0.50683287    -1.83500
O927        O  0.91301668  0.20069327  0.53292753    -0.74100
O928        O  0.97690977  0.26940588  0.40694519    -0.73900
O929        O  0.51545326  0.31258541  0.56036561    -0.73400
O930        O  0.91513808  0.20643869  0.45548290    -0.74100
O931        O  0.97054577  0.25920447  0.59325128    -0.73700
O932        O  0.51492030  0.30502828  0.44429410    -0.74300
O933        O  0.57220158  0.25917501  0.51430931    -0.73700
O934        O  0.97513625  0.20084824  0.40451567    -0.74500
O935        O  0.57183129  0.30544617  0.50696143    -0.73800
O936        O  0.51251072  0.19488511  0.46162758    -0.74300
O937        O  0.51206564  0.20046437  0.57945197    -0.74200
O938        O  0.97107683  0.19304373  0.59161987    -0.74000
C939        C  0.89850494  0.19694576  0.49305140     0.77800
C940        C  0.49710231  0.29296826  0.40725279     0.78300
C941        C  0.99128791  0.28971604  0.59675923     0.77200
C942        C  0.58783825  0.29046669  0.50995105     0.77000
C943        C  0.49458020  0.18609447  0.42408753     0.78700
C944        C  0.99428663  0.18675609  0.59416338     0.77800
Zn945      Zn  0.89867582  0.30315740  0.11394560     1.49700
Zn946      Zn  0.90265204  0.30322707  0.22483181     1.49400
Zn947      Zn  0.96479259  0.36266167  0.16665816     1.49100
Zn948      Zn  0.89888486  0.36227610  0.16655753     1.49500
O949        O  0.91638105  0.33276256  0.16808838    -1.83500
O950        O  0.87514895  0.25356860  0.13178054    -0.74100
O951        O  0.94250465  0.31415459  0.26533994    -0.73900
O952        O  0.98262056  0.35335291  0.10838921    -0.73400
O953        O  0.87909832  0.25401759  0.20980475    -0.74100
O954        O  0.93667135  0.31359876  0.07365510    -0.73700
O955        O  0.98455780  0.35496565  0.22675836    -0.74300
O956        O  0.93353587  0.41197093  0.16487333    -0.73700
O957        O  0.87310722  0.31114862  0.26625237    -0.74500
O958        O  0.98033509  0.41198860  0.16344743    -0.73800
O959        O  0.87370899  0.35233244  0.22573444    -0.74300
O960        O  0.86854898  0.35358259  0.10994052    -0.74200
O961        O  0.86774057  0.31179566  0.07388892    -0.74000
C962        C  0.86978543  0.23828478  0.17113345     0.77800
C963        C  0.97304315  0.33557476  0.26221827     0.78300
C964        C  0.96776413  0.33325336  0.07475494     0.77200
C965        C  0.96498864  0.42772778  0.16298728     0.77600
C966        C  0.86526619  0.33309602  0.26143940     0.78700
C967        C  0.85881117  0.33296601  0.07645746     0.77800
C968        C  0.84801575  0.33928232  0.29820500     0.80900
N969        N  0.84783861  0.36754085  0.29351460    -0.77400
C970        C  0.83387754  0.37677127  0.32541928     0.83300
N971        N  0.81877385  0.35693189  0.36302952    -0.77400
C972        C  0.81872166  0.32822432  0.36885880     0.83400
N973        N  0.83364633  0.31931171  0.33632166    -0.79100
C974        C  0.50643710  0.31453737  0.36626985     0.80900
N975        N  0.98492795  0.31766718  0.33876052    -0.77400
C976        C  0.99549389  0.33910576  0.30155687     0.83300
N977        N  0.52901402  0.35536519  0.29076860    -0.77400
C978        C  0.54933546  0.36009635  0.32820360     0.83400
N979        N  0.53785261  0.33995584  0.36569886    -0.79100
Zn980      Zn  0.76034766  0.02870966  0.54058895     1.49700
Zn981      Zn  0.75582706  0.02678586  0.43309666     1.49400
Zn982      Zn  0.75981494  0.46729581  0.49481725     1.49100
Zn983      Zn  0.69402303  0.46614223  0.49721160     1.49500
O984        O  0.74241651  0.99752299  0.48964068    -1.83500
O985        O  0.78533151  0.07743535  0.52293149    -0.74100
O986        O  0.78571870  0.01875024  0.39186050    -0.73900
O987        O  0.78915552  0.47654304  0.55237338    -0.73400
O988        O  0.77816410  0.07696820  0.44565491    -0.74100
O989        O  0.78925710  0.01961614  0.58128558    -0.73700
O990        O  0.78598902  0.47721296  0.43663994    -0.74300
O991        O  0.67903350  0.41637029  0.50424321    -0.73700
O992        O  0.71516985  0.01188378  0.39389667    -0.74500
O993        O  0.72600974  0.41756234  0.49573412    -0.73800
O994        O  0.67523930  0.46977736  0.43396575    -0.74300
O995        O  0.67661217  0.47972520  0.55329134    -0.74200
O996        O  0.72412327  0.02246509  0.57909427    -0.74000
C997        C  0.78918866  0.09277891  0.48417535     0.77800
C998        C  0.79528525  0.49670969  0.40121324     0.78300
C999        C  0.79922449  0.99928298  0.58064502     0.77200
C1000       C  0.69483590  0.40114322  0.50098971     0.77600
C1001       C  0.68739324  0.48811899  0.39764779     0.78700
C1002       C  0.69318508  0.00327461  0.58078714     0.77800
Zn1003     Zn  0.54065943  0.14675095  0.85390886     1.49700
Zn1004     Zn  0.60103483  0.20328385  0.78640944     1.49400
Zn1005     Zn  0.60272156  0.21154541  0.89404894     1.49100
Zn1006     Zn  0.60800347  0.14988733  0.85365333     1.49500
O1007       O  0.58818542  0.17759819  0.84622130    -1.83500
O1008       O  0.51981917  0.15461056  0.79715600    -0.74100
O1009       O  0.62577616  0.25378528  0.79398412    -0.73900
O1010       O  0.56610091  0.20212986  0.93709007    -0.73400
O1011       O  0.55940003  0.18989625  0.74880731    -0.74100
O1012       O  0.52314696  0.15391806  0.91567972    -0.73700
O1013       O  0.62291983  0.25889158  0.87072054    -0.74300
O1014       O  0.63432310  0.16271616  0.91633890    -0.73700
O1015       O  0.62934100  0.19177525  0.74806257    -0.74500
O1016       O  0.63561862  0.20907929  0.93524123    -0.73800
O1017       O  0.63636026  0.15779761  0.79605449    -0.74300
O1018       O  0.57388299  0.09933804  0.85297240    -0.74200
O1019       O  0.52629164  0.09786726  0.85075039    -0.74000
C1020       C  0.52914763  0.17039941  0.75826939     0.77800
C1021       C  0.63144227  0.27174885  0.83000307     0.78300
C1022       C  0.53693106  0.17834777  0.94363627     0.77200
C1023       C  0.64372050  0.18759393  0.94306617     0.77600
C1024       C  0.64112834  0.17321870  0.75679399     0.78700
C1025       C  0.54231294  0.08282751  0.85059706     0.77800
C1026       C  0.65805042  0.16661459  0.71933633     0.80900
N1027       N  0.65859867  0.13825368  0.72227602    -0.77400
C1028       C  0.67035145  0.12886738  0.68667963     0.83300
N1029       N  0.68189037  0.14805655  0.64776411    -0.77400
C1030       C  0.68197244  0.17668123  0.64404850     0.83400
N1031       N  0.66974649  0.18602535  0.67992226    -0.79100
C1032       C  0.99287755  0.16480819  0.63160147     0.80900
N1033       N  0.51002321  0.18132190  0.68198717    -0.77400
C1034       C  0.50356013  0.16387911  0.72303632     0.83300
N1035       N  0.98327547  0.12465860  0.70603004    -0.77400
C1036       C  0.96089095  0.11446922  0.67054905     0.83400
N1037       N  0.96542046  0.13475117  0.63376676    -0.79100
Zn1038     Zn  0.63752978  0.03635444  0.15228024     1.49700
Zn1039     Zn  0.69848609  0.10490482  0.11589164     1.49400
Zn1040     Zn  0.63573583  0.09909568  0.16767399     1.49100
Zn1041     Zn  0.69547602  0.09458055  0.22256526     1.49500
O1042       O  0.66676309  0.08354740  0.16515966    -1.83500
O1043       O  0.64882419  0.02362759  0.09117510    -0.74100
O1044       O  0.68960487  0.13637030  0.08301218    -0.73900
O1045       O  0.58630398  0.06406254  0.16324808    -0.73400
O1046       O  0.69216197  0.07173022  0.07022959    -0.74100
O1047       O  0.58766247  0.01886796  0.15135405    -0.73700
O1048       O  0.64546575  0.13247716  0.11668885    -0.74300
O1049       O  0.68549133  0.12092555  0.26852015    -0.73700
O1050       O  0.74740008  0.12878740  0.13501128    -0.74500
O1051       O  0.64311940  0.12003421  0.23011297    -0.73800
O1052       O  0.74595889  0.11840885  0.21137668    -0.74300
O1053       O  0.68235330  0.05198869  0.25446993    -0.74200
O1054       O  0.64506287  0.01336893  0.20585903    -0.74000
C1055       C  0.67235094  0.04130221  0.06357667     0.77800
C1056       C  0.66810740  0.14470443  0.08632946     0.78300
C1057       C  0.57117783  0.03305672  0.15699433     0.77200
C1058       C  0.66221996  0.12722303  0.26613653     0.77600
C1059       C  0.76232320  0.13100479  0.17398082     0.78700
C1060       C  0.66211882  0.02209346  0.24403295     0.77800
C1061       C  0.65417255  0.14065798  0.30626170     0.80900
N1062       N  0.62295058  0.13472499  0.30714708    -0.77400
C1063       C  0.61290114  0.14593952  0.34226584     0.83300
N1064       N  0.63459951  0.16420319  0.37693103    -0.77400
C1065       C  0.66606200  0.17037433  0.37690427     0.83400
N1066       N  0.67609765  0.15849767  0.34144425    -0.79100
C1067       C  0.66730280  0.48101779  0.35490545     0.80900
N1068       N  0.64119736  0.45036965  0.34735783    -0.77400
C1069       C  0.62443617  0.44296561  0.30548578     0.83300
N1070       N  0.63354453  0.46623142  0.27177893    -0.77400
C1071       C  0.65630817  0.99673188  0.27829618     0.83400
N1072       N  0.67315703  0.00437625  0.31999357    -0.79100
C1073       C  0.67217376  0.17150044  0.05695322     0.80900
N1074       N  0.65582955  0.16608236  0.01496439    -0.77400
C1075       C  0.66340350  0.19190538  0.98571082     0.83300
N1076       N  0.68731858  0.22269431  0.99854020    -0.77400
C1077       C  0.70418756  0.22770313  0.04002555     0.83400
N1078       N  0.69665343  0.20198633  0.06879955    -0.79100
Zn1079     Zn  0.63184555  0.44397489  0.82324552     1.49700
Zn1080     Zn  0.57164371  0.43865522  0.88590488     1.49400
Zn1081     Zn  0.56601157  0.44158474  0.77701904     1.49100
Zn1082     Zn  0.56428606  0.37741481  0.82100715     1.49500
O1083       O  0.58350213  0.42533786  0.82720054    -1.83500
O1084       O  0.65464360  0.47148581  0.88139124    -0.74100
O1085       O  0.54775274  0.46505385  0.87645107    -0.73900
O1086       O  0.60328282  0.47116744  0.73578911    -0.73400
O1087       O  0.61335718  0.46644673  0.92437313    -0.74100
O1088       O  0.64812768  0.47089695  0.76278362    -0.73700
O1089       O  0.54343163  0.46663898  0.79874342    -0.74300
O1090       O  0.53590889  0.36033061  0.75992039    -0.73700
O1091       O  0.54318627  0.39807466  0.92509906    -0.74500
O1092       O  0.53433609  0.40447133  0.73501080    -0.73800
O1093       O  0.53838030  0.35735333  0.88036360    -0.74300
O1094       O  0.59868449  0.36251344  0.82071924    -0.74200
O1095       O  0.64612249  0.40965021  0.82268865    -0.74000
C1096       C  0.64398200  0.47718149  0.91874150     0.77800
C1097       C  0.53831139  0.47393824  0.83941326     0.78300
C1098       C  0.63344693  0.47955346  0.73251913     0.77200
C1099       C  0.52608851  0.37447522  0.73048753     0.77600
C1100       C  0.53308644  0.36777226  0.91847024     0.78700
C1101       C  0.63022130  0.37830526  0.82197714     0.77800
C1102       C  0.98459510  0.30698596  0.63193184     0.80900
N1103       N  0.95485124  0.30466624  0.62889625    -0.77400
C1104       C  0.94598611  0.31878502  0.66141041     0.83300
N1105       N  0.96695449  0.33515819  0.69774570    -0.77400
C1106       C  0.50405299  0.35632263  0.69039796     0.83400
N1107       N  0.51045226  0.33764904  0.66125795    -0.79100
C1108       C  0.67687262  0.01074960  0.61705017     0.80900
N1109       N  0.68221101  0.04176098  0.61772400    -0.77400
C1110       C  0.67262228  0.05225678  0.65459365     0.83300
N1111       N  0.65800048  0.03174421  0.69142867    -0.77400
C1112       C  0.65139426  0.50098383  0.69326132     0.83400
N1113       N  0.66211283  0.49034714  0.65732658    -0.79100
C1114       C  0.98644631  0.32787820  0.03991081     0.80900
N1115       N  0.99966639  0.34746364  0.00120293    -0.77400
C1116       C  0.51797753  0.34413127  0.95727428     0.83300
N1117       N  0.52124878  0.31728979  0.95751816    -0.77400
C1118       C  0.99781130  0.28917629  0.00970618     0.83400
N1119       N  0.98559067  0.29907008  0.04355269    -0.79100
C1120       C  0.68034443  0.02665864  0.02593563     0.80900
N1121       N  0.65865013  0.00908246  0.99079204    -0.77400
C1122       C  0.66741227  0.49607879  0.95705574     0.83300
N1123       N  0.69898365  0.50200543  0.95724696    -0.77400
C1124       C  0.72185830  0.02203089  0.99016221     0.83400
N1125       N  0.71166469  0.03316171  0.02515100    -0.79100
C1126       C  0.98236794  0.01751317  0.15906081     0.03800
C1127       C  0.96748732  0.48272741  0.15973986    -0.12400
C1128       C  0.98401564  0.46479634  0.15971655     0.01300
C1129       C  0.51870750  0.47805034  0.16122261    -0.10900
C1130       C  0.53402709  0.01317056  0.15740801     0.03800
C1131       C  0.51531679  0.02883534  0.15908725    -0.10300
H1132       H  0.94086737  0.46972764  0.16268371     0.09400
H1133       H  0.53232266  0.46532955  0.15960254     0.06900
H1134       H  0.52777138  0.05545547  0.15896024     0.06700
C1135       C  0.81045800  0.18269486  0.49252742     0.03800
C1136       C  0.79212899  0.14787082  0.48799269    -0.12400
C1137       C  0.80809410  0.12951531  0.48450803     0.01300
C1138       C  0.84277566  0.14615089  0.48581046    -0.10900
C1139       C  0.86173738  0.18051921  0.49030842     0.03800
C1140       C  0.84547196  0.19864048  0.49347447    -0.10300
H1141       H  0.76539317  0.13487850  0.48781616     0.09400
H1142       H  0.85512726  0.13215405  0.48413228     0.06900
H1143       H  0.86015916  0.22511427  0.49723602     0.06700
C1144       C  0.67832416  0.31239036  0.50298306     0.03800
C1145       C  0.69466213  0.34710672  0.50146125    -0.12400
C1146       C  0.67696672  0.36392623  0.50302668     0.01300
C1147       C  0.64215510  0.34490425  0.50612702    -0.10900
C1148       C  0.62501889  0.30999793  0.50768391     0.03800
C1149       C  0.64358817  0.29415046  0.50615850    -0.10300
H1150       H  0.72132567  0.36100482  0.49922735     0.09400
H1151       H  0.62828835  0.35739257  0.50717116     0.06900
H1152       H  0.63105926  0.26753516  0.50735106     0.06700
C1153       C  0.52079159  0.49273776  0.84350590     0.03800
C1154       C  0.54071871  0.02819642  0.84515491    -0.12400
C1155       C  0.52375248  0.04571958  0.84669399     0.01300
C1156       C  0.98706925  0.02013101  0.84117483    -0.10900
C1157       C  0.96639366  0.48551320  0.83630835     0.03800
C1158       C  0.98256410  0.46743950  0.83431257    -0.10300
H1159       H  0.56744170  0.04139291  0.84744021     0.09400
H1160       H  0.97452344  0.03397552  0.84015786     0.06900
H1161       H  0.96817867  0.44086591  0.83166738     0.06700
C1162       C  0.64881074  0.36013425  0.82291126     0.03800
C1163       C  0.68384776  0.37753472  0.82309455    -0.12400
C1164       C  0.70147344  0.36073381  0.82364791     0.01300
C1165       C  0.68384083  0.32614130  0.82421626    -0.10900
C1166       C  0.64914394  0.30820895  0.82514933     0.03800
C1167       C  0.63182033  0.32530366  0.82448339    -0.10300
H1168       H  0.69753079  0.40418637  0.82264127     0.09400
H1169       H  0.69723514  0.31310423  0.82524545     0.06900
H1170       H  0.60510055  0.31138209  0.82551620     0.06700
C1171       C  0.85175025  0.14936014  0.17419458     0.03800
C1172       C  0.86887504  0.18425661  0.17297621    -0.12400
C1173       C  0.85171590  0.20156670  0.17226215     0.01300
C1174       C  0.81698836  0.18373248  0.17316896    -0.10900
C1175       C  0.79921460  0.14912708  0.17537924     0.03800
C1176       C  0.81673738  0.13216946  0.17584374    -0.10300
H1177       H  0.89559472  0.19807309  0.17197011     0.09400
H1178       H  0.80370296  0.19687741  0.17226274     0.06900
H1179       H  0.80295608  0.10552128  0.17652043     0.06700
C1180       C  0.66857332  0.09703187  0.68955026    -0.15800
C1181       C  0.67768590  0.08551304  0.65377534    -0.31000
H1182       H  0.65813531  0.08216064  0.72100441     0.13200
H1183       H  0.68816552  0.10038494  0.62233465     0.13800
C1184       C  0.59454117  0.41126990  0.29753542    -0.15800
C1185       C  0.58264404  0.38844491  0.33129029    -0.31000
H1186       H  0.58065099  0.40786409  0.26485007     0.13200
H1187       H  0.59654903  0.39190147  0.36397746     0.13800
C1188       C  0.73401326  0.25919168  0.05068561    -0.15800
C1189       C  0.74438523  0.28460958  0.02109079    -0.31000
H1190       H  0.75011990  0.25966297  0.07918891     0.13200
H1191       H  0.72813454  0.28405861  0.99273721     0.13800
C1192       C  0.90830468  0.07151131  0.63944421    -0.15800
C1193       C  0.93138238  0.08221498  0.67350496    -0.31000
H1194       H  0.91153053  0.08621805  0.60794964     0.13200
H1195       H  0.92817484  0.06752271  0.70501399     0.13800
C1196       C  0.91422950  0.31695584  0.65567026    -0.15800
C1197       C  0.90462231  0.33111839  0.68645484    -0.31000
H1198       H  0.89876930  0.30417138  0.62518893     0.13200
H1199       H  0.92001365  0.34363352  0.71712085     0.13800
C1200       C  0.75525139  0.02742873  0.99442803    -0.15800
C1201       C  0.76740503  0.51664323  0.96514667    -0.31000
H1202       H  0.77011517  0.04061540  0.02514982     0.13200
H1203       H  0.75421652  0.50663286  0.93198108     0.13800
C1204       C  0.50670675  0.24647271  0.02983999    -0.15800
C1205       C  0.99557537  0.25739443  0.01643595    -0.31000
H1206       H  0.01322184  0.25658919  0.94984050     0.13200
H1207       H  0.52458409  0.26336521  0.96155083     0.13800
C1208       C  0.82739071  0.42241827  0.34942816    -0.15800
C1209       C  0.83587203  0.40832827  0.31724735    -0.31000
H1210       H  0.81797495  0.41017373  0.38302423     0.13200
H1211       H  0.84529345  0.42061971  0.28367569     0.13800
C1212       C  0.57916066  0.13970520  0.33980660    -0.15800
C1213       C  0.56720728  0.15019049  0.37284825    -0.31000
H1214       H  0.56438009  0.12756063  0.30852751     0.13200
H1215       H  0.58200264  0.16241945  0.40407478     0.13800
Zn1216     Zn  0.93154726  0.56278166  0.21623756     1.49700
Zn1217     Zn  0.86918461  0.56367546  0.16577975     1.49400
Zn1218     Zn  0.93745337  0.63050153  0.17040199     1.49100
Zn1219     Zn  0.93360079  0.57080796  0.10801104     1.49500
O1220       O  0.91778910  0.58205252  0.16495271    -1.83500
O1221       O  0.89225113  0.53179363  0.25506462    -0.74100
O1222       O  0.85559587  0.59887451  0.16997836    -0.73900
O1223       O  0.96537417  0.64547395  0.23140347    -0.73400
O1224       O  0.84874112  0.53253229  0.22367324    -0.74100
O1225       O  0.96209775  0.59928876  0.25887667    -0.73700
O1226       O  0.90325268  0.64583105  0.17238748    -0.74300
O1227       O  0.96363271  0.61212512  0.07153472    -0.73700
O1228       O  0.85112919  0.54222082  0.10140945    -0.74500
O1229       O  0.96541436  0.65288450  0.11212535    -0.73800
O1230       O  0.89408883  0.54557698  0.06427528    -0.74300
O1231       O  0.95943276  0.54602427  0.11975028    -0.74200
O1232       O  0.95629566  0.53913297  0.19706313    -0.74000
C1233       C  0.86177513  0.52292047  0.25550602     0.77800
C1234       C  0.87170145  0.63027117  0.17173841     0.78300
C1235       C  0.97276246  0.62993133  0.26193765     0.77200
C1236       C  0.97311599  0.64242331  0.07626139     0.77600
C1237       C  0.86385161  0.53778942  0.06504429     0.78700
C1238       C  0.96613917  0.53531248  0.15756595     0.77800
C1239       C  0.50556714  0.66759256  0.39625000     0.80900
N1240       N  0.53221340  0.66436505  0.40392027    -0.77400
C1241       C  0.54054789  0.64917439  0.37224732     0.83300
N1242       N  0.52196788  0.63687266  0.33238989    -0.77400
C1243       C  0.99484609  0.64722272  0.30178652     0.83400
N1244       N  0.98602209  0.66125502  0.33552594    -0.79100
C1245       C  0.81012383  0.98978620  0.36003249     0.80900
N1246       N  0.80928837  0.96094870  0.36437631    -0.77400
C1247       C  0.82290330  0.95131740  0.33237821     0.83300
N1248       N  0.83872960  0.97136054  0.29525696    -0.77400
C1249       C  0.84200667  0.50069452  0.29417407     0.83400
N1250       N  0.82679336  0.50975118  0.32609107    -0.79100
C1251       C  0.52090962  0.68245774  0.98513409     0.80900
N1252       N  0.52114019  0.71102552  0.98888551    -0.77400
C1253       C  0.50741206  0.71657529  0.02611389     0.83300
N1254       N  0.99535487  0.69579235  0.03584345    -0.77400
C1255       C  0.99240220  0.66560311  0.03824409     0.83400
N1256       N  0.50687900  0.65899432  0.01954703    -0.79100
C1257       C  0.83555745  0.00186194  0.94523280     0.80900
N1258       N  0.85328961  0.01224180  0.98632855    -0.77400
C1259       C  0.84380772  0.52543260  0.02132175     0.83300
N1260       N  0.81620626  0.52760047  0.01479800    -0.77400
C1261       C  0.79802298  0.01596606  0.97240518     0.83400
N1262       N  0.80798919  0.00344321  0.93900258    -0.79100
Zn1263     Zn  0.73151156  0.70384184  0.50668235     1.49700
Zn1264     Zn  0.73814503  0.76800901  0.55862711     1.49400
Zn1265     Zn  0.79885733  0.77058777  0.49597759     1.49100
Zn1266     Zn  0.73213034  0.76466765  0.44840161     1.49500
O1267       O  0.75043646  0.75195047  0.50252724    -1.83500
O1268       O  0.70652028  0.68705956  0.56820007    -0.74100
O1269       O  0.78006353  0.79835447  0.59463648    -0.73900
O1270       O  0.81267571  0.73480248  0.49359206    -0.73400
O1271       O  0.71010161  0.73030472  0.60403149    -0.74100
O1272       O  0.76524677  0.68858052  0.50434106    -0.73700
O1273       O  0.82066807  0.79865264  0.55506724    -0.74300
O1274       O  0.76898309  0.79596268  0.40624971    -0.73700
O1275       O  0.71268442  0.79225372  0.54335890    -0.74500
O1276       O  0.81491172  0.79866059  0.43452765    -0.73800
O1277       O  0.70586311  0.78731355  0.46583039    -0.74300
O1278       O  0.70291789  0.72398841  0.40987407    -0.74200
O1279       O  0.70167375  0.68229169  0.44992727    -0.74000
C1280       C  0.70032560  0.69972204  0.60301149     0.77800
C1281       C  0.81035934  0.80716233  0.59036310     0.78300
C1282       C  0.79627479  0.70339176  0.49776273     0.77200
C1283       C  0.79972518  0.80640762  0.40358038     0.77600
C1284       C  0.70116961  0.79715551  0.50486492     0.78700
C1285       C  0.69345928  0.69355869  0.41438299     0.77800
Zn1286     Zn  0.80535519  0.90547959  0.77173573     1.49700
Zn1287     Zn  0.80581171  0.91116748  0.87872647     1.49400
Zn1288     Zn  0.86396024  0.90320102  0.83559009     1.49100
Zn1289     Zn  0.86728836  0.97036035  0.82544580     1.49500
O1290       O  0.83588567  0.92266707  0.82749030    -1.83500
O1291       O  0.75556418  0.88168237  0.78503836    -0.74100
O1292       O  0.81180562  0.88150737  0.92120530    -0.73900
O1293       O  0.85642994  0.87721626  0.77664862    -0.73400
O1294       O  0.75640912  0.88948282  0.86166885    -0.74100
O1295       O  0.81549540  0.87631075  0.73376845    -0.73700
O1296       O  0.85234473  0.87499983  0.89541810    -0.74300
O1297       O  0.91638375  0.98412000  0.82918370    -0.73700
O1298       O  0.81810874  0.95055577  0.91542017    -0.74500
O1299       O  0.91391627  0.93652987  0.83948689    -0.73800
O1300       O  0.86024239  0.99313863  0.87988886    -0.74300
O1301       O  0.85848540  0.98593786  0.76339987    -0.74200
O1302       O  0.81509537  0.94300876  0.72865877    -0.74000
C1303       C  0.74038980  0.87859149  0.82299621     0.77800
C1304       C  0.83041563  0.86946877  0.92542378     0.78300
C1305       C  0.83785889  0.86900755  0.73975474     0.77200
C1306       C  0.93091314  0.96778989  0.83571754     0.77600
C1307       C  0.83940086  0.98095841  0.91277224     0.78700
C1308       C  0.83775720  0.97311841  0.72915466     0.77800
C1309       C  0.84508333  0.85318682  0.70198032     0.80900
N1310       N  0.82437954  0.83867328  0.66426515    -0.77400
C1311       C  0.83365804  0.82603812  0.62894045     0.83300
N1312       N  0.86357848  0.82824610  0.63172261    -0.77400
C1313       C  0.88409878  0.84299125  0.66934643     0.83400
N1314       N  0.87466480  0.85518109  0.70399713    -0.79100
C1315       C  0.82313642  0.50495106  0.61797912     0.80900
N1316       N  0.81810860  0.98445218  0.65355742    -0.77400
C1317       C  0.84196401  0.99354471  0.68784611     0.83300
N1318       N  0.86710312  0.52412323  0.69036776    -0.77400
C1319       C  0.87220307  0.54492417  0.65413891     0.83400
N1320       N  0.85013407  0.53539627  0.61834343    -0.79100
C1321       C  0.83706641  0.82972542  0.03568116     0.80900
N1322       N  0.84673269  0.84946808  0.99656264    -0.77400
C1323       C  0.82331881  0.84686106  0.96477822     0.83300
N1324       N  0.79110036  0.82543907  0.97264360    -0.77400
C1325       C  0.78160853  0.80595461  0.01100439     0.83400
N1326       N  0.80461725  0.80791872  0.04251934    -0.79100
Zn1327     Zn  0.96433771  0.72499650  0.55432882     1.49700
Zn1328     Zn  0.96662687  0.72718477  0.44530345     1.49400
Zn1329     Zn  0.52592969  0.79131024  0.50479518     1.49100
Zn1330     Zn  0.52576740  0.72677629  0.52109999     1.49500
O1331       O  0.49604259  0.74397063  0.50876299    -1.83500
O1332       O  0.91525574  0.70372188  0.53496149    -0.74100
O1333       O  0.97605974  0.76737691  0.40741470    -0.73900
O1334       O  0.51811234  0.81464018  0.55702880    -0.73400
O1335       O  0.91664883  0.70261031  0.45718656    -0.74100
O1336       O  0.97473767  0.76218773  0.59583528    -0.73700
O1337       O  0.51791346  0.80461137  0.44159879    -0.74300
O1338       O  0.57584900  0.76123159  0.51907961    -0.73700
O1339       O  0.97783783  0.69960545  0.40483406    -0.74500
O1340       O  0.57508221  0.80698418  0.50654223    -0.73800
O1341       O  0.51749583  0.69608453  0.46760307    -0.74300
O1342       O  0.51533371  0.70299923  0.58480195    -0.74200
O1343       O  0.97149426  0.69443080  0.59423062    -0.74000
C1344       C  0.90041655  0.69641515  0.49495291     0.77800
C1345       C  0.49994378  0.79149451  0.40500189     0.78300
C1346       C  0.99685264  0.79238585  0.59832327     0.77200
C1347       C  0.59124987  0.79227640  0.51213887     0.77000
C1348       C  0.49953136  0.68665855  0.43012073     0.78700
C1349       C  0.99359918  0.68665922  0.59778030     0.77800
Zn1350     Zn  0.90093433  0.80319740  0.11208436     1.49700
Zn1351     Zn  0.90109688  0.80255252  0.22213177     1.49400
Zn1352     Zn  0.96488946  0.86335445  0.16820835     1.49100
Zn1353     Zn  0.89881887  0.86202365  0.16244293     1.49500
O1354       O  0.91666173  0.83277446  0.16629691    -1.83500
O1355       O  0.87878839  0.75340405  0.12867668    -0.74100
O1356       O  0.93936200  0.81279167  0.26560816    -0.73900
O1357       O  0.98471997  0.85411447  0.11184872    -0.73400
O1358       O  0.87762704  0.75335625  0.20662614    -0.74100
O1359       O  0.93981595  0.81533368  0.07370376    -0.73700
O1360       O  0.98200710  0.85576186  0.23110303    -0.74300
O1361       O  0.93254224  0.91180764  0.16198547    -0.73700
O1362       O  0.87113320  0.81103648  0.26143343    -0.74500
O1363       O  0.97987647  0.91286082  0.16489239    -0.73800
O1364       O  0.87254590  0.85242117  0.22036616    -0.74300
O1365       O  0.86983832  0.85272890  0.10413527    -0.74200
O1366       O  0.86997863  0.81059930  0.07065186    -0.74000
C1367       C  0.87113280  0.73784676  0.16791282     0.77800
C1368       C  0.96953312  0.83555662  0.26557355     0.78300
C1369       C  0.97084159  0.83474655  0.07707381     0.77200
C1370       C  0.96400724  0.92812332  0.16280034     0.77600
C1371       C  0.86354966  0.83314052  0.25601455     0.78700
C1372       C  0.86079288  0.83162469  0.07141146     0.77800
C1373       C  0.84539884  0.83889508  0.29183190     0.80900
N1374       N  0.84241206  0.86552376  0.28497922    -0.77400
C1375       C  0.82754606  0.87413855  0.31637897     0.83300
N1376       N  0.81451271  0.85530602  0.35557751    -0.77400
C1377       C  0.81734371  0.82831201  0.36352471     0.83400
N1378       N  0.83313435  0.82010909  0.33154963    -0.79100
C1379       C  0.50892185  0.81206350  0.36286906     0.80900
N1380       N  0.98168613  0.81616144  0.34101448    -0.77400
C1381       C  0.99010155  0.84037088  0.30787776     0.83300
N1382       N  0.53018790  0.85322928  0.28770440    -0.77400
C1383       C  0.55154510  0.85690941  0.32316872     0.83400
N1384       N  0.54072974  0.83655697  0.36050485    -0.79100
Zn1385     Zn  0.75946027  0.52848234  0.54247424     1.49700
Zn1386     Zn  0.75723183  0.52657412  0.43604366     1.49400
Zn1387     Zn  0.76086483  0.96880636  0.49184858     1.49100
Zn1388     Zn  0.69437744  0.96661471  0.49493652     1.49500
O1389       O  0.74217621  0.49681892  0.49217685    -1.83500
O1390       O  0.78486220  0.57740512  0.52544061    -0.74100
O1391       O  0.78786896  0.51895877  0.39613704    -0.73900
O1392       O  0.79088100  0.97814622  0.54827766    -0.73400
O1393       O  0.77977824  0.57697480  0.44796271    -0.74100
O1394       O  0.78862203  0.51971250  0.58152696    -0.73700
O1395       O  0.78557631  0.97804056  0.43301530    -0.74300
O1396       O  0.68081325  0.91740885  0.50263218    -0.73700
O1397       O  0.71730876  0.51144215  0.39572635    -0.74500
O1398       O  0.72813737  0.91931408  0.49395696    -0.73800
O1399       O  0.67414264  0.96944927  0.43227661    -0.74300
O1400       O  0.67714684  0.98004017  0.55121760    -0.74200
O1401       O  0.72336754  0.52198755  0.58197046    -0.74000
C1402       C  0.79002087  0.59283840  0.48653836     0.77800
C1403       C  0.79357972  0.99678777  0.39692519     0.78300
C1404       C  0.79821599  0.49909624  0.58279419     0.77200
C1405       C  0.69709098  0.90263293  0.49977746     0.77600
C1406       C  0.68545841  0.98815144  0.39612452     0.78700
C1407       C  0.69241307  0.50271819  0.58330667     0.77800
Zn1408     Zn  0.54156176  0.64719601  0.85670528     1.49700
Zn1409     Zn  0.60136207  0.70390510  0.78857302     1.49400
Zn1410     Zn  0.60437311  0.71148380  0.89630866     1.49100
Zn1411     Zn  0.60805932  0.64924750  0.85321250     1.49500
O1412       O  0.58902054  0.67776231  0.84801307    -1.83500
O1413       O  0.52002392  0.65485832  0.80074007    -0.74100
O1414       O  0.62510013  0.75414869  0.79648858    -0.73900
O1415       O  0.56782961  0.70335940  0.93887034    -0.73400
O1416       O  0.55947409  0.69009867  0.75218941    -0.74100
O1417       O  0.52494741  0.65482584  0.91838679    -0.73700
O1418       O  0.62695642  0.75940032  0.87391159    -0.74300
O1419       O  0.63537714  0.66111054  0.91486304    -0.73700
O1420       O  0.62998221  0.69364555  0.74852425    -0.74500
O1421       O  0.63545247  0.70624865  0.93733412    -0.73800
O1422       O  0.63510868  0.65744685  0.79407413    -0.74300
O1423       O  0.57342822  0.59873483  0.85346659    -0.74200
O1424       O  0.52637716  0.59819849  0.85455347    -0.74000
C1425       C  0.52927255  0.67069443  0.76190459     0.77800
C1426       C  0.63325669  0.77219701  0.83290151     0.78300
C1427       C  0.53872689  0.67952069  0.94576256     0.77200
C1428       C  0.64409683  0.68501851  0.94321218     0.77600
C1429       C  0.64069062  0.67403829  0.75573921     0.78700
C1430       C  0.54183637  0.58265756  0.85323749     0.77800
C1431       C  0.65700524  0.66722695  0.71760090     0.80900
N1432       N  0.65509826  0.63767831  0.71888055    -0.77400
C1433       C  0.66647917  0.62803064  0.68324770     0.83300
N1434       N  0.68034004  0.64826190  0.64582875    -0.77400
C1435       C  0.68299147  0.67818916  0.64370580     0.83400
N1436       N  0.67095554  0.68776164  0.67967582    -0.79100
C1437       C  0.99089502  0.66529801  0.63693020     0.80900
N1438       N  0.51082163  0.68213561  0.68585236    -0.77400
C1439       C  0.50380223  0.66464592  0.72685277     0.83300
N1440       N  0.97918958  0.62792287  0.71539127    -0.77400
C1441       C  0.95566865  0.61864331  0.68156063     0.83400
N1442       N  0.96141833  0.63756453  0.64273398    -0.79100
Zn1443     Zn  0.63913084  0.53602332  0.15534519     1.49700
Zn1444     Zn  0.69941424  0.60365908  0.11689242     1.49400
Zn1445     Zn  0.63790570  0.59894867  0.17045395     1.49100
Zn1446     Zn  0.69813134  0.59457115  0.22373168     1.49500
O1447       O  0.66865214  0.58325752  0.16723856    -1.83500
O1448       O  0.64841799  0.52229263  0.09417308    -0.74100
O1449       O  0.69020182  0.63459251  0.08366704    -0.73900
O1450       O  0.58861806  0.56365106  0.16661424    -0.73400
O1451       O  0.69180677  0.56985373  0.07184479    -0.74100
O1452       O  0.58957400  0.51810914  0.15628459    -0.73700
O1453       O  0.64711963  0.63195959  0.11887329    -0.74300
O1454       O  0.68853013  0.62075575  0.27033693    -0.73700
O1455       O  0.74856901  0.62755014  0.13435171    -0.74500
O1456       O  0.64570748  0.61982253  0.23321839    -0.73800
O1457       O  0.74829114  0.61864308  0.21106289    -0.74300
O1458       O  0.68583683  0.55212888  0.25553580    -0.74200
O1459       O  0.64778331  0.51354665  0.20767287    -0.74000
C1460       C  0.67151119  0.53946488  0.06586524     0.77800
C1461       C  0.66906387  0.64333145  0.08745775     0.78300
C1462       C  0.57333245  0.53253171  0.16135341     0.77200
C1463       C  0.66515350  0.62690531  0.26884674     0.77600
C1464       C  0.76405115  0.63052576  0.17304745     0.78700
C1465       C  0.66542164  0.52224857  0.24522360     0.77800
C1466       C  0.65732422  0.63981643  0.30978836     0.80900
N1467       N  0.62563852  0.63228672  0.31281616    -0.77400
C1468       C  0.61591829  0.64336415  0.34854440     0.83300
N1469       N  0.63829824  0.66295699  0.38154227    -0.77400
C1470       C  0.67014359  0.67066679  0.37942251     0.83400
N1471       N  0.67998476  0.65903017  0.34341829    -0.79100
C1472       C  0.66480853  0.98089315  0.35373883     0.80900
N1473       N  0.63977470  0.94976040  0.34537924    -0.77400
C1474       C  0.62324919  0.94218577  0.30326824     0.83300
N1475       N  0.63141054  0.96571970  0.27016233    -0.77400
C1476       C  0.65952000  0.49680787  0.27919409     0.83400
N1477       N  0.67652338  0.50427460  0.32069218    -0.79100
C1478       C  0.67299521  0.66970717  0.05727440     0.80900
N1479       N  0.65624959  0.66370995  0.01547333    -0.77400
C1480       C  0.66422279  0.68906645  0.98507761     0.83300
N1481       N  0.68877493  0.71977116  0.99653396    -0.77400
C1482       C  0.70602695  0.72532782  0.03764352     0.83400
N1483       N  0.69820432  0.70017608  0.06766796    -0.79100
Zn1484     Zn  0.63384476  0.94448258  0.82199694     1.49700
Zn1485     Zn  0.57351001  0.93962404  0.88447850     1.49400
Zn1486     Zn  0.56842374  0.94223922  0.77579510     1.49100
Zn1487     Zn  0.56608284  0.87796715  0.82074459     1.49500
O1488       O  0.58553835  0.92588355  0.82621981    -1.83500
O1489       O  0.65629674  0.97261790  0.87969724    -0.74100
O1490       O  0.54959616  0.96575457  0.87418163    -0.73900
O1491       O  0.60521339  0.97091503  0.73373653    -0.73400
O1492       O  0.61500644  0.96822297  0.92205235    -0.74100
O1493       O  0.65011476  0.97110132  0.76135794    -0.73700
O1494       O  0.54691005  0.96816147  0.79640620    -0.74300
O1495       O  0.53705900  0.86091620  0.75951379    -0.73700
O1496       O  0.54562128  0.89975390  0.92526912    -0.74500
O1497       O  0.53609478  0.90541813  0.73480435    -0.73800
O1498       O  0.54071757  0.85876844  0.88108685    -0.74300
O1499       O  0.60086424  0.86318718  0.82045758    -0.74200
O1500       O  0.64840445  0.91028208  0.82186905    -0.74000
C1501       C  0.64558950  0.97891791  0.91650202     0.77800
C1502       C  0.54117314  0.97520155  0.83676536     0.78300
C1503       C  0.63538258  0.97940929  0.73071110     0.77200
C1504       C  0.52741434  0.87535844  0.73018915     0.77600
C1505       C  0.53559021  0.86942675  0.91914457     0.78700
C1506       C  0.63245427  0.87892433  0.82146947     0.77800
C1507       C  0.99172638  0.81181666  0.63212819     0.80900
N1508       N  0.96405370  0.81320199  0.62532469    -0.77400
C1509       C  0.95619494  0.82960652  0.65526076     0.83300
N1510       N  0.97616714  0.84470394  0.69311127    -0.77400
C1511       C  0.50625289  0.85811841  0.68883408     0.83400
N1512       N  0.51249264  0.83862503  0.66130454    -0.79100
C1513       C  0.67560423  0.51012566  0.61899124     0.80900
N1514       N  0.67922711  0.54046193  0.61760817    -0.77400
C1515       C  0.66838532  0.55084871  0.65309600     0.83300
N1516       N  0.65420576  0.53090844  0.69066370    -0.77400
C1517       C  0.65345047  0.00109517  0.69188132     0.83400
N1518       N  0.66283731  0.99031843  0.65457710    -0.79100
C1519       C  0.99028418  0.82956009  0.04349045     0.80900
N1520       N  0.00313100  0.84861389  0.00430907    -0.77400
C1521       C  0.52041603  0.84589238  0.95814042     0.83300
N1522       N  0.52258412  0.81843010  0.95751797    -0.77400
C1523       C  0.00203147  0.79081133  0.01452472     0.83400
N1524       N  0.98953586  0.80082405  0.04782796    -0.79100
C1525       C  0.67888315  0.52414663  0.02873270     0.80900
N1526       N  0.65725351  0.50699616  0.99333308    -0.77400
C1527       C  0.66892553  0.99834728  0.95442726     0.83300
N1528       N  0.70053470  0.00461830  0.95437947    -0.77400
C1529       C  0.72016377  0.51901254  0.99349945     0.83400
N1530       N  0.70993324  0.53004467  0.02841512    -0.79100
C1531       C  0.98483479  0.51734307  0.15588644     0.03800
C1532       C  0.96528845  0.98276127  0.16121793    -0.12400
C1533       C  0.98235043  0.96527012  0.16112109     0.01300
C1534       C  0.51706918  0.97835437  0.15777134    -0.10900
C1535       C  0.53627869  0.51291942  0.16176288     0.03800
C1536       C  0.51826070  0.52915756  0.16374511    -0.10300
H1537       H  0.93859661  0.96937239  0.16291469     0.09400
H1538       H  0.53111069  0.96605682  0.15641266     0.06900
H1539       H  0.53117677  0.55580254  0.16421878     0.06700
C1540       C  0.81309127  0.68344321  0.49440223     0.03800
C1541       C  0.79420970  0.64858154  0.49027362    -0.12400
C1542       C  0.80957706  0.62965146  0.48681721     0.01300
C1543       C  0.84427878  0.64583498  0.48785745    -0.10900
C1544       C  0.86370519  0.68021963  0.49238130     0.03800
C1545       C  0.84799018  0.69882846  0.49546670    -0.10300
H1546       H  0.76749320  0.63602988  0.49007771     0.09400
H1547       H  0.85626084  0.63149143  0.48615579     0.06900
H1548       H  0.86303384  0.72529621  0.49904962     0.06700
C1549       C  0.68180774  0.81435043  0.50559680     0.03800
C1550       C  0.69788879  0.84904544  0.50262403    -0.12400
C1551       C  0.67987291  0.86560732  0.50316518     0.01300
C1552       C  0.64518435  0.84652241  0.50667133    -0.10900
C1553       C  0.62835162  0.81176881  0.50975224     0.03800
C1554       C  0.64708790  0.79604541  0.50926266    -0.10300
H1555       H  0.72451762  0.86309713  0.49985992     0.09400
H1556       H  0.63113956  0.85885599  0.50686390     0.06900
H1557       H  0.63467323  0.76946097  0.51134252     0.06700
C1558       C  0.52339734  0.99365283  0.83992917     0.03800
C1559       C  0.53875797  0.52732187  0.84821091    -0.12400
C1560       C  0.52249689  0.54548380  0.85044596     0.01300
C1561       C  0.98596987  0.52031967  0.83945191    -0.10900
C1562       C  0.96805444  0.98538664  0.83913649     0.03800
C1563       C  0.98475098  0.96761162  0.84007916    -0.10300
H1564       H  0.56548989  0.54009106  0.84940031     0.09400
H1565       H  0.97377230  0.53444240  0.84084342     0.06900
H1566       H  0.97073057  0.94101059  0.83793705     0.06700
C1567       C  0.65103367  0.86065497  0.82263004     0.03800
C1568       C  0.68608881  0.87783338  0.82132768    -0.12400
C1569       C  0.70356096  0.86080727  0.82275388     0.01300
C1570       C  0.68577353  0.82629042  0.82574032    -0.10900
C1571       C  0.65113116  0.80862808  0.82769197     0.03800
C1572       C  0.63395715  0.82587721  0.82604519    -0.10300
H1573       H  0.69988239  0.90445383  0.81929344     0.09400
H1574       H  0.69901599  0.81310274  0.82739375     0.06900
H1575       H  0.60726620  0.81211088  0.82780489     0.06700
C1576       C  0.85337415  0.64884483  0.17232481     0.03800
C1577       C  0.87048535  0.68375906  0.16981078    -0.12400
C1578       C  0.85329063  0.70108462  0.16888022     0.01300
C1579       C  0.81859475  0.68322099  0.17049144    -0.10900
C1580       C  0.80089258  0.64866123  0.17344602     0.03800
C1581       C  0.81839488  0.63170593  0.17436466    -0.10300
H1582       H  0.89719092  0.69754972  0.16848516     0.09400
H1583       H  0.80526725  0.69632510  0.16961877     0.06900
H1584       H  0.80461081  0.60507184  0.17597786     0.06700
C1585       C  0.66294051  0.59541386  0.68554447    -0.15800
C1586       C  0.67248184  0.58372268  0.65058077    -0.31000
H1587       H  0.65182344  0.58053865  0.71678273     0.13200
H1588       H  0.68358878  0.59855344  0.61931151     0.13800
C1589       C  0.59469005  0.90973477  0.29410621    -0.15800
C1590       C  0.58480701  0.88548008  0.32562347    -0.31000
H1591       H  0.57979913  0.90682916  0.26265704     0.13200
H1592       H  0.59977738  0.88837314  0.35697767     0.13800
C1593       C  0.73635337  0.75668198  0.04632481    -0.15800
C1594       C  0.74684767  0.78080434  0.01442958    -0.31000
H1595       H  0.75249150  0.75792516  0.07531571     0.13200
H1596       H  0.73056944  0.77947885  0.98557570     0.13800
C1597       C  0.90149146  0.57740909  0.65261063    -0.15800
C1598       C  0.92472595  0.58770472  0.68649598    -0.31000
H1599       H  0.90454297  0.59261520  0.62176458     0.13200
H1600       H  0.92170876  0.57253715  0.71737514     0.13800
C1601       C  0.92562791  0.82985316  0.64628333    -0.15800
C1602       C  0.91598807  0.84505967  0.67507406    -0.31000
H1603       H  0.91023159  0.81627014  0.61616848     0.13200
H1604       H  0.93128059  0.85831004  0.70545028     0.13800
C1605       C  0.75366794  0.52474628  0.99829610    -0.15800
C1606       C  0.76664119  0.01472111  0.96418273    -0.31000
H1607       H  0.76702010  0.53505536  0.03127167     0.13200
H1608       H  0.75192294  0.00171354  0.93327158     0.13800
C1609       C  0.50538544  0.74634550  0.02835810    -0.15800
C1610       C  0.99994250  0.75914004  0.02187433    -0.31000
H1611       H  0.02960662  0.76442558  0.96493643     0.13200
H1612       H  0.52442897  0.76359564  0.96061684     0.13800
C1613       C  0.82046538  0.91946472  0.34027721    -0.15800
C1614       C  0.82766582  0.90478311  0.30724570    -0.31000
H1615       H  0.81219879  0.90767626  0.37443690     0.13200
H1616       H  0.83588190  0.91657601  0.27307356     0.13800
C1617       C  0.58200413  0.63655683  0.34779443    -0.15800
C1618       C  0.57153331  0.64949276  0.37944100    -0.31000
H1619       H  0.56618068  0.62280402  0.31810455     0.13200
H1620       H  0.58728164  0.66316202  0.40923536     0.13800
loop_ 
_geom_bond_atom_site_label_1 
_geom_bond_atom_site_label_2 
_geom_bond_distance 
_geom_bond_site_symmetry_2 
_ccdc_geom_bond_type 
Zn1           O5   1.964       .  S
Zn1           O6   2.001       .  S
Zn1          O10   2.007       .  S
Zn1          O17   2.066       .  S
Zn2           O5   1.983       .  S
Zn2           O7   2.059       .  S
Zn2           O9   2.049       .  S
Zn2          O13   2.035       .  S
Zn3           O5   1.975       .  S
Zn3           O8   2.053       .  S
Zn3          O11   2.071       .  S
Zn3          O14   2.031       .  S
Zn4           O5   1.989       .  S
Zn4          O12   2.023       .  S
Zn4          O15   2.019       .  S
Zn4          O16   2.072       .  S
O6           C18   1.273       .  A
O7           C19   1.276       .  A
O8           C20   1.277       .  A
O9           C18   1.277       .  A
O10          C20   1.273       .  A
O11          C19   1.277       .  A
O12          C21   1.273       .  A
O13          C22   1.278       .  A
O14          C21   1.279       .  A
O15          C22   1.275       .  A
O16          C23   1.277       .  A
O17          C23   1.275       .  A
C18          C34   1.463   1_545  S
C19         C361   1.509       .  S
C20          C28   1.467       .  S
C21          C40   1.472       .  S
C22          C44   1.472       .  S
C23         C316   1.497       .  S
C24         C133   1.454   1_455  S
C24          N25   1.350       .  A
C24         N839   1.362   1_455  A
N25          C26   1.341       .  A
C26          N27   1.356       .  A
C26         C403   1.461       .  S
N27         C838   1.358   1_455  A
C28          N29   1.365       .  A
C28         N837   1.356       .  A
N29         C834   1.366       .  A
C30         C188   1.460       .  S
C30          N31   1.351       .  A
C30         N440   1.364       .  A
N31          C32   1.345       .  A
C32          N33   1.356       .  A
C32         C398   1.461       .  S
N33         C439   1.356       .  A
C34          N35   1.365   1_565  A
C34         N438   1.356       .  A
N35         C435   1.365   1_545  A
C36         C212   1.448       .  S
C36          N37   1.345       .  A
C36          N41   1.362   1_556  A
N37          C38   1.342       .  A
C38         N849   1.361   1_456  A
C38         C394   1.461       .  S
N39          C40   1.356       .  A
N39         C848   1.349       .  A
C40         N851   1.370       .  A
N41         C850   1.367   1_455  A
C42          C92   1.463       .  S
C42          N43   1.364   1_556  A
C42          N47   1.357       .  A
N43         C449   1.363       .  A
C44          N45   1.362       .  A
C44         N448   1.365   1_554  A
N45         C451   1.361   1_544  A
C46          N47   1.357   1_554  A
C46         N450   1.344       .  A
C46         C391   1.461       .  S
Zn48         O52   1.991       .  S
Zn48         O53   2.038       .  S
Zn48         O57   2.054       .  S
Zn48         O64   2.054       .  S
Zn49         O52   1.997       .  S
Zn49         O54   2.044       .  S
Zn49         O56   2.025       .  S
Zn49         O60   2.066       .  S
Zn50         O52   1.986       .  S
Zn50         O55   2.084       .  S
Zn50         O58   2.078       .  S
Zn50         O61   2.083       .  S
Zn51         O52   1.970       .  S
Zn51         O59   2.020       .  S
Zn51         O62   2.076       .  S
Zn51         O63   2.014       .  S
O53          C65   1.278       .  A
O54          C66   1.275       .  A
O55          C67   1.281       .  A
O56          C65   1.275       .  A
O57          C67   1.275       .  A
O58          C66   1.285       .  A
O59          C68   1.275       .  A
O60          C69   1.277       .  A
O61          C68   1.280       .  A
O62          C69   1.278       .  A
O63          C70   1.273       .  A
O64          C70   1.277       .  A
C65         C220   1.473       .  S
C66          C96   1.490       .  S
C67         C325   1.510       .  S
C68         C162   1.479       .  S
C69         C334   1.498       .  S
C70         C255   1.469       .  S
Zn71         O75   2.003       .  S
Zn71         O76   2.065       .  S
Zn71         O80   2.047       .  S
Zn71         O87   1.997       .  S
Zn72         O75   1.963       .  S
Zn72         O77   1.995       .  S
Zn72         O79   2.081       .  S
Zn72         O83   2.001       .  S
Zn73         O75   1.958       .  S
Zn73         O78   2.020       .  S
Zn73         O81   2.010       .  S
Zn73         O84   2.067       .  S
Zn74         O75   1.981       .  S
Zn74         O82   2.088       .  S
Zn74         O85   2.049       .  S
Zn74         O86   2.019       .  S
O76          C88   1.275       .  A
O77          C89   1.272       .  A
O78          C90   1.279       .  A
O79          C88   1.278       .  A
O80          C90   1.273       .  A
O81          C89   1.273       .  A
O82          C91   1.278       .  A
O83          C92   1.272       .  A
O84          C91   1.276       .  A
O85          C92   1.276       .  A
O86          C93   1.279       .  A
O87          C93   1.273       .  A
C88         C354   1.500       .  S
C89         C108   1.446       .  S
C90          C94   1.476       .  S
C91         C347   1.516       .  S
C93         C102   1.459       .  S
C94          N95   1.373       .  A
C94          N99   1.349       .  A
N95          C96   1.377       .  A
C96          N97   1.359       .  A
N97          C98   1.356       .  A
C98          N99   1.342       .  A
C98         C387   1.462       .  S
C100        C189   1.445       .  S
C100        N105   1.350       .  A
C100        N506   1.357   1_545  A
N101        C102   1.363       .  A
N101        C505   1.358       .  A
C102        N508   1.355       .  A
N103        C104   1.353       .  A
N103        C507   1.354       .  A
C104        N105   1.344       .  A
C104        C382   1.456       .  S
C106        C157   1.465       .  S
C106        N107   1.365   1_554  A
C106        N111   1.354       .  A
N107        C108   1.365       .  A
C108        N109   1.348       .  A
N109        C110   1.342       .  A
C110        N111   1.354   1_556  A
C110        C379   1.458       .  S
Zn112       O926   1.942       .  S
Zn112       O117   2.054       .  S
Zn112       O121   1.992       .  S
Zn112       O128   1.970       .  S
Zn113       O926   1.999       .  S
Zn113       O118   2.014       .  S
Zn113       O120   2.055       .  S
Zn113       O124   2.009       .  S
Zn114       O116   1.958   1_455  S
Zn114       O119   2.018       .  S
Zn114       O122   1.997       .  S
Zn114       O125   2.069       .  S
Zn115       O116   1.954   1_455  S
Zn115       O123   2.063       .  S
Zn115       O126   1.972       .  S
Zn115       O127   2.017       .  S
O116       Zn922   1.938       .  S
O116       Zn923   1.993       .  S
O117        C129   1.274       .  A
O118        C940   1.272       .  A
O119        C941   1.273   1_455  A
O120        C129   1.274       .  A
O121        C131   1.271       .  A
O122        C130   1.276   1_455  A
O123        C132   1.274       .  A
O124        C943   1.272       .  A
O125        C132   1.276       .  A
O126        C133   1.275   1_455  A
O127        C944   1.272   1_455  A
O128        C134   1.270       .  A
C129        C329   1.489       .  S
C130        O928   1.269       .  A
C130        C164   1.452   1_655  S
C131        O929   1.272       .  A
C131        C292   1.454       .  S
C132        C338   1.512       .  S
C133        O934   1.274       .  A
C134        O937   1.276       .  A
C134        C222   1.455       .  S
Zn135       O139   1.956       .  S
Zn135       O140   2.064       .  S
Zn135       O144   1.998       .  S
Zn135       O151   1.989       .  S
Zn136       O139   1.992       .  S
Zn136       O141   1.987       .  S
Zn136       O143   2.040       .  S
Zn136       O147   2.022       .  S
Zn137       O139   1.977       .  S
Zn137       O142   2.048       .  S
Zn137       O145   2.029       .  S
Zn137       O148   2.067       .  S
Zn138       O139   1.966       .  S
Zn138       O146   2.075       .  S
Zn138       O149   2.042       .  S
Zn138       O150   2.061       .  S
O140        C152   1.275       .  A
O141        C153   1.271       .  A
O142        C154   1.275       .  A
O143        C152   1.272       .  A
O144        C154   1.272       .  A
O145        C153   1.279       .  A
O146        C155   1.278       .  A
O147        C156   1.271       .  A
O148        C155   1.277       .  A
O149        C156   1.283       .  A
O150        C157   1.278       .  A
O151        C157   1.272       .  A
C152        C363   1.488       .  S
C153        C166   1.461       .  S
C154        C304   1.463       .  S
C155        C318   1.512       .  S
C156        C158   1.474       .  S
C158        N159   1.349       .  A
C158        N163   1.374       .  A
N159        C160   1.342       .  A
C160        N161   1.354       .  A
C160        C399   1.460       .  S
N161        C162   1.356       .  A
C162        N163   1.374       .  A
C164        N169   1.346       .  A
C164        N975   1.363   1_455  A
N165        C166   1.365       .  A
N165        C974   1.360       .  A
C166        N977   1.355       .  A
N167        C168   1.356       .  A
N167        C976   1.356   1_455  A
C168        N169   1.341       .  A
C168        C375   1.450       .  S
Zn170       O174   1.926   1_545  S
Zn170       O175   2.046       .  S
Zn170       O179   1.932       .  S
Zn170       O186   1.940       .  S
Zn171       O174   1.987   1_545  S
Zn171       O176   2.020       .  S
Zn171       O178   2.087       .  S
Zn171       O182   2.001       .  S
Zn172       O579   1.971       .  S
Zn172       O177   2.045       .  S
Zn172       O180   2.002       .  S
Zn172       O183   2.072       .  S
Zn173       O579   1.968       .  S
Zn173       O181   2.060       .  S
Zn173       O184   2.007       .  S
Zn173       O185   2.038       .  S
O174       Zn577   1.969       .  S
O174       Zn578   1.974       .  S
O175        C187   1.271       .  A
O176        C593   1.273   1_545  A
O177        C594   1.276       .  A
O178        C187   1.277       .  A
O179        C189   1.265       .  A
O180        C188   1.277       .  A
O181        C190   1.275       .  A
O182        C596   1.274   1_545  A
O183        C190   1.276       .  A
O184        C191   1.277       .  A
O185        C597   1.275       .  A
O186        C192   1.264   1_545  A
C187        C327   1.499       .  S
C188        O581   1.272       .  A
C189        O582   1.275   1_545  A
C190        C336   1.510       .  S
C191        O587   1.275       .  A
C191        C257   1.460       .  S
C192        O590   1.275       .  A
C192        C298   1.448       .  S
Zn193       O197   1.957       .  S
Zn193       O198   1.984       .  S
Zn193       O202   2.020       .  S
Zn193       O209   2.054       .  S
Zn194       O197   1.998       .  S
Zn194       O199   2.073       .  S
Zn194       O201   2.007       .  S
Zn194       O205   2.022       .  S
Zn195       O197   1.946       .  S
Zn195       O200   1.983       .  S
Zn195       O203   2.061       .  S
Zn195       O206   1.974       .  S
Zn196       O197   1.957       .  S
Zn196       O204   2.004       .  S
Zn196       O207   1.984       .  S
Zn196       O208   2.080       .  S
O198        C210   1.275       .  A
O199        C211   1.276       .  A
O200        C212   1.271       .  A
O201        C210   1.272       .  A
O202        C212   1.273       .  A
O203        C211   1.274       .  A
O204        C213   1.273       .  A
O205        C214   1.273       .  A
O206        C213   1.269       .  A
O207        C214   1.274       .  A
O208        C215   1.276       .  A
O209        C215   1.274       .  A
C210        C224   1.453       .  S
C211        C356   1.497       .  S
C213        C265   1.441       .  S
C214        C216   1.460       .  S
C215        C345   1.512       .  S
C216        N217   1.349       .  A
C216        N221   1.361       .  A
N217        C218   1.343       .  A
C218        N219   1.360       .  A
C218        C370   1.465       .  S
N219        C220   1.363       .  A
C220        N221   1.365       .  A
C222        N227   1.352       .  A
C222       N1033   1.361       .  A
N223        C224   1.363       .  A
N223       C1032   1.363   1_455  A
C224       N1035   1.351   1_455  A
N225        C226   1.344       .  A
N225       C1034   1.353       .  A
C226        N227   1.352       .  A
C226        C383   1.458       .  S
Zn228       O232   1.952       .  S
Zn228       O233   2.014       .  S
Zn228       O237   2.050       .  S
Zn228       O244   1.967       .  S
Zn229       O232   1.921       .  S
Zn229       O234   1.924       .  S
Zn229       O236   1.951       .  S
Zn229       O240   2.041       .  S
Zn230       O232   1.961       .  S
Zn230       O235   2.074       .  S
Zn230       O238   2.016       .  S
Zn230       O241   1.994       .  S
Zn231       O232   1.992       .  S
Zn231       O239   2.020       .  S
Zn231       O242   2.065       .  S
Zn231       O243   1.992       .  S
O233        C245   1.270       .  A
O234        C246   1.265       .  A
O235        C247   1.275       .  A
O236        C245   1.267       .  A
O237        C247   1.274       .  A
O238        C246   1.273       .  A
O239        C248   1.273       .  A
O240        C249   1.270       .  A
O241        C248   1.277       .  A
O242        C249   1.274       .  A
O243        C250   1.271       .  A
O244        C250   1.274       .  A
C245        C310   1.440       .  S
C246        C263   1.434       .  S
C247        C320   1.510       .  S
C248        C251   1.461       .  S
C249        C365   1.490       .  S
C250        C261   1.444       .  S
C251        N252   1.349       .  A
C251        N256   1.365       .  A
N252        C253   1.342       .  A
C253        N254   1.358       .  A
C253        C402   1.461       .  S
N254        C255   1.359       .  A
C255        N256   1.367       .  A
C257        N258   1.354       .  A
C257        N667   1.359       .  A
N258        C259   1.354       .  A
C259        N260   1.342       .  A
C259        C374   1.452       .  S
N260        C666   1.348       .  A
C261        N262   1.358       .  A
C261        N665   1.346   1_545  A
N262        C662   1.361   1_545  A
C263        N264   1.353       .  A
C263        N268   1.347       .  A
N264        C265   1.357   1_554  A
C265        N266   1.356       .  A
N266        C267   1.355       .  A
C267        N268   1.342   1_556  A
C267        C378   1.453       .  S
Zn269       O273   1.970       .  S
Zn269       O274   2.006       .  S
Zn269       O278   2.066       .  S
Zn269       O285   2.073       .  S
Zn270       O273   1.988       .  S
Zn270       O275   2.053       .  S
Zn270       O277   1.983       .  S
Zn270       O281   2.030       .  S
Zn271       O273   1.959       .  S
Zn271       O276   1.993       .  S
Zn271       O279   2.053       .  S
Zn271       O282   1.981       .  S
Zn272       O273   1.978       .  S
Zn272       O280   2.047       .  S
Zn272       O283   2.058       .  S
Zn272       O284   2.079       .  S
O274        C286   1.278       .  A
O275        C287   1.273       .  A
O276        C288   1.269       .  A
O277        C286   1.269       .  A
O278        C288   1.278       .  A
O279        C287   1.274       .  A
O280        C289   1.279       .  A
O281        C290   1.275       .  A
O282        C289   1.272       .  A
O283        C290   1.281       .  A
O284        C291   1.279       .  A
O285        C291   1.277       .  A
C286        C312   1.454       .  S
C287        C343   1.490       .  S
C288        C302   1.469       .  S
C289        C296   1.455   1_455  S
C290        C306   1.482       .  S
C291        C352   1.514       .  S
C292        N293   1.348       .  A
C292       N1107   1.366       .  A
N293        C294   1.344       .  A
C294        N295   1.358       .  A
C294        C386   1.463       .  S
N295       C1106   1.359       .  A
C296        N297   1.361   1_655  A
C296       N1105   1.354       .  A
N297       C1102   1.360   1_455  A
C298        N299   1.350   1_565  A
C298        N708   1.362       .  A
N299        C300   1.343       .  A
C300        N301   1.358       .  A
C300        C371   1.467       .  S
N301        C707   1.359   1_545  A
C302        N303   1.363       .  A
C302        N706   1.361       .  A
N303        C703   1.363       .  A
C304        N305   1.366   1_554  A
C304        N309   1.353       .  A
N305       C1116   1.367       .  A
C306        N307   1.362       .  A
C306       N1115   1.369   1_456  A
N307       C1118   1.360   1_456  A
C308        N309   1.352   1_556  A
C308       N1117   1.349       .  A
C308        C395   1.464       .  S
C310        N311   1.358   1_545  A
C310        N315   1.344       .  A
N311        C717   1.364   1_554  A
C312        N313   1.350       .  A
C312        N716   1.366       .  A
N313        C719   1.343       .  A
C314        N315   1.340   1_565  A
C314        N718   1.362   1_554  A
C314        C390   1.459       .  S
C316        C722   1.413   1_545  A
C316       C1131   1.410       .  A
C317        C318   1.418       .  A
C317        C721   1.413       .  A
C317        H322   1.083       .  S
C318       C1129   1.418       .  A
C319       C1128   1.417   1_455  A
C319        C725   1.417       .  A
C319        H323   1.083       .  S
C320        C321   1.418       .  A
C320        C724   1.416   1_545  A
C321       C1126   1.415   1_455  A
C321        H324   1.083       .  S
C325        C326   1.422       .  A
C325        C330   1.413       .  A
C326        C327   1.417       .  A
C326        H331   1.083       .  S
C327        C328   1.410       .  A
C328        C329   1.409       .  A
C328        H332   1.084       .  S
C329        C330   1.409       .  A
C330        H333   1.083       .  S
C334        C335   1.412       .  A
C334        C339   1.414       .  A
C335        C336   1.416       .  A
C335        H340   1.083       .  S
C336        C337   1.417       .  A
C337        C338   1.416       .  A
C337        H341   1.083       .  S
C338        C339   1.418       .  A
C339        H342   1.083       .  S
C343        C749   1.416       .  A
C343       C1158   1.405   1_455  A
C344        C345   1.418       .  A
C344        C748   1.415   1_545  A
C344        H349   1.083       .  S
C345       C1156   1.417   1_455  A
C346       C1155   1.421       .  A
C346        C752   1.418   1_545  A
C346        H350   1.083       .  S
C347        C348   1.417       .  A
C347        C751   1.418       .  A
C348       C1153   1.412       .  A
C348        H351   1.083       .  S
C352        C353   1.421       .  A
C352        C357   1.419       .  A
C353        C354   1.415       .  A
C353        H358   1.083       .  S
C354        C355   1.411       .  A
C355        C356   1.411       .  A
C355        H359   1.084       .  S
C356        C357   1.414       .  A
C357        H360   1.083       .  S
C361        C362   1.418       .  A
C361        C366   1.418       .  A
C362        C363   1.413       .  A
C362        H367   1.083       .  S
C363        C364   1.406       .  A
C364        C365   1.406       .  A
C364        H368   1.084       .  S
C365        C366   1.412       .  A
C366        H369   1.083       .  S
C370        C371   1.331       .  D
C370        H372   1.087       .  S
C371        H373   1.087       .  S
C374        C375   1.329       .  D
C374        H376   1.087       .  S
C375        H377   1.087       .  S
C378        C379   1.330       .  D
C378        H380   1.088   1_556  S
C379        H381   1.087       .  S
C382        C383   1.334       .  D
C382        H384   1.087       .  S
C383        H385   1.087       .  S
C386        C387   1.331       .  D
C386        H388   1.087       .  S
C387        H389   1.087       .  S
C390        C796   1.325   1_554  D
C390        H392   1.087   1_565  S
C391        C795   1.332   1_554  D
C391        H393   1.087       .  S
C394       C1205   1.327   1_456  D
C394       H1206   1.087       .  S
C395       C1204   1.340   1_556  D
C395       H1207   1.087       .  S
H396       C1204   1.087       .  S
H397       C1205   1.087       .  S
C398        C399   1.333       .  D
C398        H400   1.087       .  S
C399        H401   1.087       .  S
C402        C403   1.330       .  D
C402        H404   1.087       .  S
C403        H405   1.087       .  S
Zn406       O410   1.955       .  S
Zn406       O411   1.996       .  S
Zn406       O415   1.994       .  S
Zn406       O422   2.052       .  S
Zn407       O410   1.966       .  S
Zn407       O412   2.055       .  S
Zn407       O414   2.048       .  S
Zn407       O418   2.002       .  S
Zn408       O410   1.974       .  S
Zn408       O413   2.060       .  S
Zn408       O416   2.084       .  S
Zn408       O419   2.036       .  S
Zn409       O410   1.995       .  S
Zn409       O417   2.015       .  S
Zn409       O420   2.002       .  S
Zn409       O421   2.056       .  S
O411        C423   1.271       .  A
O412        C424   1.274       .  A
O413        C425   1.280       .  A
O414        C423   1.276       .  A
O415        C425   1.273       .  A
O416        C424   1.278       .  A
O417        C426   1.272       .  A
O418        C427   1.277       .  A
O419        C426   1.280       .  A
O420        C427   1.271       .  A
O421        C428   1.274       .  A
O422        C428   1.274       .  A
C423        C439   1.464       .  S
C424        C766   1.511       .  S
C425        C433   1.465       .  S
C426        C445   1.471       .  S
C427        C449   1.457       .  S
C428        C721   1.489       .  S
C429        C538   1.461   1_455  S
C429        N430   1.352       .  A
C429       N1244   1.363   1_455  A
N430        C431   1.345       .  A
C431        N432   1.356       .  A
C431        C808   1.465       .  S
N432       C1243   1.358   1_455  A
C433       N1242   1.355       .  A
C433        N434   1.363       .  A
N434       C1239   1.365       .  A
C435        C593   1.463       .  S
C435        N436   1.352       .  A
N436        C437   1.346       .  A
C437        N438   1.355       .  A
C437        C803   1.462       .  S
C439        N440   1.364       .  A
C441        C617   1.451       .  S
C441        N442   1.344       .  A
C441        N446   1.362   1_556  A
N442        C443   1.341       .  A
C443       N1254   1.361   1_456  A
C443        C799   1.461       .  S
N444       C1253   1.349       .  A
N444        C445   1.355       .  A
C445       N1256   1.369       .  A
N446       C1255   1.368   1_455  A
C447        C497   1.441       .  S
C447        N448   1.360   1_565  A
C447        N452   1.343       .  A
C449        N450   1.350       .  A
C451        N452   1.339       .  A
C451        C796   1.459       .  S
Zn453       O457   1.987       .  S
Zn453       O458   2.045       .  S
Zn453       O462   2.048       .  S
Zn453       O469   2.058       .  S
Zn454       O457   1.994       .  S
Zn454       O459   2.043       .  S
Zn454       O461   2.036       .  S
Zn454       O465   2.074       .  S
Zn455       O457   1.992       .  S
Zn455       O460   2.075       .  S
Zn455       O463   2.067       .  S
Zn455       O466   2.075       .  S
Zn456       O457   1.966       .  S
Zn456       O464   2.011       .  S
Zn456       O467   2.068       .  S
Zn456       O468   2.017       .  S
O458        C470   1.280       .  A
O459        C471   1.277       .  A
O460        C472   1.280       .  A
O461        C470   1.277       .  A
O462        C472   1.275       .  A
O463        C471   1.282       .  A
O464        C473   1.274       .  A
O465        C474   1.277       .  A
O466        C473   1.279       .  A
O467        C474   1.277       .  A
O468        C475   1.273       .  A
O469        C475   1.277       .  A
C470        C625   1.478       .  S
C471        C501   1.486       .  S
C472        C730   1.506       .  S
C473        C567   1.476       .  S
C474        C739   1.498       .  S
C475        C660   1.472       .  S
Zn476       O480   1.995       .  S
Zn476       O481   2.069       .  S
Zn476       O485   2.035       .  S
Zn476       O492   1.990       .  S
Zn477       O480   1.944       .  S
Zn477       O482   1.981       .  S
Zn477       O484   2.080       .  S
Zn477       O488   1.961       .  S
Zn478       O480   1.950       .  S
Zn478       O483   2.008       .  S
Zn478       O486   2.018       .  S
Zn478       O489   2.059       .  S
Zn479       O480   1.978       .  S
Zn479       O487   2.058       .  S
Zn479       O490   2.019       .  S
Zn479       O491   2.005       .  S
O481        C493   1.276       .  A
O482        C494   1.270       .  A
O483        C495   1.278       .  A
O484        C493   1.277       .  A
O485        C495   1.273       .  A
O486        C494   1.274       .  A
O487        C496   1.274       .  A
O488        C497   1.268       .  A
O489        C496   1.276       .  A
O490        C497   1.272       .  A
O491        C498   1.277       .  A
O492        C498   1.272       .  A
C493        C759   1.500       .  S
C494        C513   1.445       .  S
C495        C499   1.467       .  S
C496        C752   1.508       .  S
C498        C507   1.456   1_565  S
C499        N500   1.367       .  A
C499        N504   1.347       .  A
N500        C501   1.372       .  A
C501        N502   1.364       .  A
N502        C503   1.361       .  A
C503        N504   1.342       .  A
C503        C792   1.466       .  S
C505        C594   1.449       .  S
C505        N510   1.352       .  A
N506        C507   1.362   1_565  A
N508        C509   1.354       .  A
C509        N510   1.346       .  A
C509        C787   1.460       .  S
C511        C562   1.466       .  S
C511        N512   1.365   1_554  A
C511        N516   1.354       .  A
N512        C513   1.366       .  A
C513        N514   1.348       .  A
N514        C515   1.342       .  A
C515        N516   1.354   1_556  A
C515        C784   1.459       .  S
Zn517      O1331   1.942       .  S
Zn517       O522   2.060       .  S
Zn517       O526   1.989       .  S
Zn517       O533   1.968       .  S
Zn518      O1331   1.993       .  S
Zn518       O523   2.019       .  S
Zn518       O525   2.050       .  S
Zn518       O529   1.996       .  S
Zn519       O521   1.953   1_455  S
Zn519       O524   2.025       .  S
Zn519       O527   1.993       .  S
Zn519       O530   2.050       .  S
Zn520       O521   1.961   1_455  S
Zn520       O528   2.065       .  S
Zn520       O531   1.995       .  S
Zn520       O532   2.030       .  S
O521      Zn1327   1.940       .  S
O521      Zn1328   1.998       .  S
O522        C534   1.275       .  A
O523       C1345   1.272       .  A
O524       C1346   1.272   1_455  A
O525        C534   1.274       .  A
O526        C536   1.270       .  A
O527        C535   1.276   1_455  A
O528        C537   1.275       .  A
O529       C1348   1.271       .  A
O530        C537   1.274       .  A
O531        C538   1.277   1_455  A
O532       C1349   1.274   1_455  A
O533        C539   1.269       .  A
C534        C734   1.490       .  S
C535       O1333   1.271       .  A
C535        C569   1.459   1_655  S
C536       O1334   1.273       .  A
C536        C697   1.448       .  S
C537        C743   1.507       .  S
C538       O1339   1.275       .  A
C539       O1342   1.277       .  A
C539        C627   1.455       .  S
Zn540       O544   1.952       .  S
Zn540       O545   2.061       .  S
Zn540       O549   1.992       .  S
Zn540       O556   1.984       .  S
Zn541       O544   1.991       .  S
Zn541       O546   1.995       .  S
Zn541       O548   2.041       .  S
Zn541       O552   2.024       .  S
Zn542       O544   1.974       .  S
Zn542       O547   2.048       .  S
Zn542       O550   2.033       .  S
Zn542       O553   2.067       .  S
Zn543       O544   1.965       .  S
Zn543       O551   2.065       .  S
Zn543       O554   2.037       .  S
Zn543       O555   2.064       .  S
O545        C557   1.275       .  A
O546        C558   1.271       .  A
O547        C559   1.275       .  A
O548        C557   1.272       .  A
O549        C559   1.271       .  A
O550        C558   1.280       .  A
O551        C560   1.276       .  A
O552        C561   1.273       .  A
O553        C560   1.278       .  A
O554        C561   1.282       .  A
O555        C562   1.278       .  A
O556        C562   1.271       .  A
C557        C768   1.488       .  S
C558        C571   1.464       .  S
C559        C709   1.463       .  S
C560        C723   1.509       .  S
C561        C563   1.473       .  S
C563        N564   1.352       .  A
C563        N568   1.372       .  A
N564        C565   1.345       .  A
C565        N566   1.353       .  A
C565        C804   1.462       .  S
N566        C567   1.355       .  A
C567        N568   1.371       .  A
C569       N1380   1.365   1_455  A
C569        N574   1.348       .  A
N570       C1379   1.362       .  A
N570        C571   1.367       .  A
C571       N1382   1.354       .  A
N572       C1381   1.354   1_455  A
N572        C573   1.354       .  A
C573        N574   1.340       .  A
C573        C780   1.454       .  S
Zn575       O579   1.932       .  S
Zn575       O580   2.047       .  S
Zn575       O584   1.944       .  S
Zn575       O591   1.957       .  S
Zn576       O579   1.992       .  S
Zn576       O581   2.009       .  S
Zn576       O583   2.087       .  S
Zn576       O587   2.013       .  S
Zn577       O582   2.040       .  S
Zn577       O585   2.006       .  S
Zn577       O588   2.065       .  S
Zn578       O586   2.068       .  S
Zn578       O589   2.011       .  S
Zn578       O590   2.048       .  S
O580        C592   1.272       .  A
O583        C592   1.277       .  A
O584        C594   1.266       .  A
O585        C593   1.277       .  A
O586        C595   1.278       .  A
O588        C595   1.276       .  A
O589        C596   1.278       .  A
O591        C597   1.267       .  A
C592        C732   1.497       .  S
C595        C741   1.509       .  S
C596        C662   1.458       .  S
C597        C703   1.448       .  S
Zn598       O602   1.965       .  S
Zn598       O603   1.985       .  S
Zn598       O607   2.028       .  S
Zn598       O614   2.056       .  S
Zn599       O602   2.001       .  S
Zn599       O604   2.067       .  S
Zn599       O606   2.006       .  S
Zn599       O610   2.025       .  S
Zn600       O602   1.949       .  S
Zn600       O605   1.981       .  S
Zn600       O608   2.057       .  S
Zn600       O611   1.984       .  S
Zn601       O602   1.955       .  S
Zn601       O609   2.019       .  S
Zn601       O612   1.994       .  S
Zn601       O613   2.100       .  S
O603        C615   1.275       .  A
O604        C616   1.275       .  A
O605        C617   1.271       .  A
O606        C615   1.272       .  A
O607        C617   1.273       .  A
O608        C616   1.274       .  A
O609        C618   1.275       .  A
O610        C619   1.273       .  A
O611        C618   1.270       .  A
O612        C619   1.276       .  A
O613        C620   1.279       .  A
O614        C620   1.274       .  A
C615        C629   1.454       .  S
C616        C761   1.493       .  S
C618        C670   1.447       .  S
C619        C621   1.462       .  S
C620        C750   1.518       .  S
C621        N622   1.349       .  A
C621        N626   1.364       .  A
N622        C623   1.343       .  A
C623        N624   1.360       .  A
C623        C775   1.466       .  S
N624        C625   1.363       .  A
C625        N626   1.368       .  A
C627       N1438   1.359       .  A
C627        N632   1.354       .  A
N628       C1437   1.362   1_455  A
N628        C629   1.364       .  A
C629       N1440   1.352   1_455  A
N630       C1439   1.353       .  A
N630        C631   1.346       .  A
C631        N632   1.353       .  A
C631        C788   1.461       .  S
Zn633       O637   1.966       .  S
Zn633       O638   2.069       .  S
Zn633       O642   2.089       .  S
Zn633       O649   1.994       .  S
Zn634       O637   1.934       .  S
Zn634       O639   1.932       .  S
Zn634       O641   1.972       .  S
Zn634       O645   2.042       .  S
Zn635       O637   1.967       .  S
Zn635       O640   2.083       .  S
Zn635       O643   2.024       .  S
Zn635       O646   2.015       .  S
Zn636       O637   1.994       .  S
Zn636       O644   2.034       .  S
Zn636       O647   2.069       .  S
Zn636       O648   1.975       .  S
O638        C650   1.277       .  A
O639        C651   1.267       .  A
O640        C652   1.277       .  A
O641        C650   1.267       .  A
O642        C652   1.280       .  A
O643        C651   1.275       .  A
O644        C653   1.273       .  A
O645        C654   1.270       .  A
O646        C653   1.278       .  A
O647        C654   1.274       .  A
O648        C655   1.271       .  A
O649        C655   1.278       .  A
C650        C715   1.467       .  S
C651        C668   1.438       .  S
C652        C725   1.521       .  S
C653        C656   1.470       .  S
C654        C770   1.492       .  S
C655        C666   1.445       .  S
C656        N657   1.352       .  A
C656        N661   1.368       .  A
N657        C658   1.345       .  A
C658        N659   1.356       .  A
C658        C807   1.466       .  S
N659        C660   1.358       .  A
C660        N661   1.370       .  A
C662        N663   1.356       .  A
N663        C664   1.355       .  A
C664        N665   1.340       .  A
C664        C779   1.452       .  S
C666        N667   1.361       .  A
C668        N669   1.355       .  A
C668        N673   1.347       .  A
N669        C670   1.358   1_554  A
C670        N671   1.357       .  A
N671        C672   1.357       .  A
C672        N673   1.342   1_556  A
C672        C783   1.455       .  S
Zn674       O678   1.989       .  S
Zn674       O679   2.049       .  S
Zn674       O683   2.062       .  S
Zn674       O690   2.071       .  S
Zn675       O678   1.982       .  S
Zn675       O680   2.080       .  S
Zn675       O682   1.999       .  S
Zn675       O686   2.020       .  S
Zn676       O678   1.963       .  S
Zn676       O681   1.986       .  S
Zn676       O684   2.059       .  S
Zn676       O687   1.992       .  S
Zn677       O678   1.987       .  S
Zn677       O685   2.072       .  S
Zn677       O688   2.063       .  S
Zn677       O689   2.084       .  S
O679        C691   1.279       .  A
O680        C692   1.276       .  A
O681        C693   1.270       .  A
O682        C691   1.272       .  A
O683        C693   1.279       .  A
O684        C692   1.274       .  A
O685        C694   1.280       .  A
O686        C695   1.275       .  A
O687        C694   1.272       .  A
O688        C695   1.282       .  A
O689        C696   1.280       .  A
O690        C696   1.277       .  A
C691        C717   1.470       .  S
C692        C748   1.498       .  S
C693        C707   1.464       .  S
C694        C701   1.469       .  S
C695        C711   1.478       .  S
C696        C757   1.516       .  S
C697        N698   1.346       .  A
C697       N1512   1.365       .  A
N698        C699   1.342       .  A
C699        N700   1.361       .  A
C699        C791   1.467       .  S
N700       C1511   1.363       .  A
C701       N1510   1.358   1_455  A
C701        N702   1.367       .  A
N702       C1507   1.366   1_455  A
C703        N704   1.349       .  A
N704        C705   1.344       .  A
C705        N706   1.359       .  A
C705        C776   1.467       .  S
C707        N708   1.364       .  A
C709        N710   1.368   1_554  A
C709        N714   1.351       .  A
N710       C1521   1.369       .  A
C711       N1520   1.368   1_556  A
C711        N712   1.362       .  A
N712       C1523   1.361   1_556  A
C713       N1522   1.348       .  A
C713        N714   1.350   1_556  A
C713        C800   1.461       .  S
C715        N716   1.363   1_554  A
C715        N720   1.357       .  A
C717        N718   1.362       .  A
C719        N720   1.355   1_556  A
C719        C795   1.461       .  S
C721       C1536   1.404       .  A
C722        C723   1.418       .  A
C722        H727   1.083       .  S
C723       C1534   1.416       .  A
C724       C1533   1.414   1_455  A
C724        H728   1.083       .  S
C725        C726   1.424       .  A
C726       C1531   1.421   1_455  A
C726        H729   1.083       .  S
C730        C731   1.419       .  A
C730        C735   1.413       .  A
C731        C732   1.413       .  A
C731        H736   1.083       .  S
C732        C733   1.411       .  A
C733        C734   1.411       .  A
C733        H737   1.084       .  S
C734        C735   1.409       .  A
C735        H738   1.084       .  S
C739        C740   1.413       .  A
C739        C744   1.413       .  A
C740        C741   1.417       .  A
C740        H745   1.083       .  S
C741        C742   1.414       .  A
C742        C743   1.415       .  A
C742        H746   1.083       .  S
C743        C744   1.417       .  A
C744        H747   1.083       .  S
C748       C1563   1.411   1_455  A
C749        C750   1.417       .  A
C749        H754   1.083       .  S
C750       C1561   1.422   1_455  A
C751       C1560   1.422       .  A
C751        H755   1.083       .  S
C752        C753   1.411       .  A
C753       C1558   1.407       .  A
C753        H756   1.084       .  S
C757        C758   1.423       .  A
C757        C762   1.418       .  A
C758        C759   1.418       .  A
C758        H763   1.083       .  S
C759        C760   1.408       .  A
C760        C761   1.408       .  A
C760        H764   1.084       .  S
C761        C762   1.413       .  A
C762        H765   1.083       .  S
C766        C767   1.417       .  A
C766        C771   1.420       .  A
C767        C768   1.413       .  A
C767        H772   1.083       .  S
C768        C769   1.406       .  A
C769        C770   1.405       .  A
C769        H773   1.084       .  S
C770        C771   1.414       .  A
C771        H774   1.083       .  S
C775        C776   1.332       .  D
C775        H777   1.087       .  S
C776        H778   1.087       .  S
C779        C780   1.328       .  D
C779        H781   1.087       .  S
C780        H782   1.087       .  S
C783        C784   1.330       .  D
C783        H785   1.088   1_556  S
C784        H786   1.087       .  S
C787        C788   1.336       .  D
C787        H789   1.087       .  S
C788        H790   1.087       .  S
C791        C792   1.329       .  D
C791        H793   1.087       .  S
C792        H794   1.087       .  S
C795        H797   1.087       .  S
C796        H798   1.087       .  S
C799       C1610   1.326   1_456  D
C799       H1611   1.088       .  S
C800       C1609   1.339   1_556  D
C800       H1612   1.087       .  S
H801       C1609   1.087       .  S
H802       C1610   1.087       .  S
C803        C804   1.335       .  D
C803        H805   1.087       .  S
C804        H806   1.087       .  S
C807        C808   1.334       .  D
C807        H809   1.087       .  S
C808        H810   1.087       .  S
Zn811       O815   1.966       .  S
Zn811       O816   2.010       .  S
Zn811       O820   1.986       .  S
Zn811       O827   2.068       .  S
Zn812       O815   1.985       .  S
Zn812       O817   2.071       .  S
Zn812       O819   2.064       .  S
Zn812       O823   2.047       .  S
Zn813       O815   1.990       .  S
Zn813       O818   2.049       .  S
Zn813       O821   2.078       .  S
Zn813       O824   2.053       .  S
Zn814       O815   1.986       .  S
Zn814       O822   2.018       .  S
Zn814       O825   2.016       .  S
Zn814       O826   2.084       .  S
O816        C828   1.273       .  A
O817        C829   1.277       .  A
O818        C830   1.278       .  A
O819        C828   1.279       .  A
O820        C830   1.271       .  A
O821        C829   1.278       .  A
O822        C831   1.274       .  A
O823        C832   1.280       .  A
O824        C831   1.280       .  A
O825        C832   1.275       .  A
O826        C833   1.277       .  A
O827        C833   1.275       .  A
C828        C844   1.471       .  S
C829       C1171   1.514       .  S
C830        C838   1.458       .  S
C831        C850   1.477       .  S
C832        C854   1.473       .  S
C833       C1126   1.502       .  S
C834        C943   1.462       .  S
C834        N835   1.351       .  A
N835        C836   1.344       .  A
C836        N837   1.356       .  A
C836       C1213   1.463       .  S
C838        N839   1.363       .  A
C840        C998   1.466       .  S
C840        N841   1.346       .  A
C840       N1250   1.369       .  A
N841        C842   1.337       .  A
C842        N843   1.359       .  A
C842       C1208   1.462       .  S
N843       C1249   1.362       .  A
C844       N1248   1.363   1_545  A
C844        N845   1.369       .  A
N845       C1245   1.365   1_545  A
C846       C1022   1.471       .  S
C846        N847   1.353       .  A
C846        N851   1.367   1_556  A
N847        C848   1.352   1_556  A
C848       C1204   1.465       .  S
N849        C850   1.362       .  A
C852        C902   1.439       .  S
C852        N853   1.360       .  A
C852        N857   1.344       .  A
N853       C1259   1.363   1_556  A
C854       N1258   1.365   1_554  A
C854        N855   1.361       .  A
N855       C1261   1.361   1_554  A
C856       N1260   1.363   1_556  A
C856        N857   1.340       .  A
C856       C1201   1.463       .  S
Zn858       O862   1.978       .  S
Zn858       O863   2.044       .  S
Zn858       O867   2.069       .  S
Zn858       O874   2.036       .  S
Zn859       O862   2.003       .  S
Zn859       O864   2.019       .  S
Zn859       O866   2.032       .  S
Zn859       O870   2.062       .  S
Zn860       O862   1.988       .  S
Zn860       O865   2.095       .  S
Zn860       O868   2.057       .  S
Zn860       O871   2.072       .  S
Zn861       O862   1.974       .  S
Zn861       O869   2.023       .  S
Zn861       O872   2.083       .  S
Zn861       O873   2.023       .  S
O863        C875   1.280       .  A
O864        C876   1.274       .  A
O865        C877   1.280       .  A
O866        C875   1.273       .  A
O867        C877   1.277       .  A
O868        C876   1.283       .  A
O869        C878   1.275       .  A
O870        C879   1.276       .  A
O871        C878   1.280       .  A
O872        C879   1.278       .  A
O873        C880   1.275       .  A
O874        C880   1.275       .  A
C875       C1030   1.478       .  S
C876        C906   1.477       .  S
C877       C1135   1.518       .  S
C878        C972   1.476       .  S
C879       C1144   1.498       .  S
C880       C1065   1.464       .  S
Zn881       O885   1.990       .  S
Zn881       O886   2.055       .  S
Zn881       O890   2.001       .  S
Zn881       O897   1.999       .  S
Zn882       O885   1.930       .  S
Zn882       O887   1.952       .  S
Zn882       O889   2.058       .  S
Zn882       O893   1.952       .  S
Zn883       O885   1.965       .  S
Zn883       O888   2.030       .  S
Zn883       O891   2.057       .  S
Zn883       O894   2.078       .  S
Zn884       O885   1.967       .  S
Zn884       O892   2.047       .  S
Zn884       O895   2.014       .  S
Zn884       O896   1.989       .  S
O886        C898   1.273       .  A
O887        C899   1.268       .  A
O888        C900   1.281       .  A
O889        C898   1.273       .  A
O890        C900   1.271       .  A
O891        C899   1.276       .  A
O892        C901   1.273       .  A
O893        C902   1.267       .  A
O894        C901   1.279       .  A
O895        C902   1.270       .  A
O896        C903   1.275       .  A
O897        C903   1.271       .  A
C898       C1164   1.491       .  S
C899        C918   1.457       .  S
C900        C904   1.464       .  S
C901       C1157   1.508       .  S
C903        C912   1.453       .  S
C904        N905   1.367       .  A
C904        N909   1.348       .  A
N905        C906   1.369       .  A
C906        N907   1.357       .  A
N907        C908   1.356       .  A
C908        N909   1.344       .  A
C908       C1197   1.456       .  S
C910        C999   1.442   1_545  S
C910       N1316   1.362   1_545  A
C910        N915   1.347       .  A
N911       C1315   1.360       .  A
N911        C912   1.362       .  A
C912       N1318   1.351       .  A
N913       C1317   1.350   1_545  A
N913        C914   1.350       .  A
C914        N915   1.342       .  A
C914       C1192   1.448       .  S
C916        C967   1.462       .  S
C916        N917   1.367       .  A
C916        N921   1.357       .  A
N917        C918   1.363   1_554  A
C918        N919   1.349       .  A
N919        C920   1.343   1_556  A
C920        N921   1.356       .  A
C920       C1189   1.461       .  S
Zn922       O927   2.063       .  S
Zn922       O931   1.952       .  S
Zn922       O938   1.987       .  S
Zn923       O928   1.991       .  S
Zn923       O930   2.060       .  S
Zn923       O934   2.016       .  S
Zn924       O926   1.952       .  S
Zn924       O929   2.024       .  S
Zn924       O932   1.977       .  S
Zn924       O935   2.039       .  S
Zn925       O926   1.966       .  S
Zn925       O933   2.081       .  S
Zn925       O936   2.010       .  S
Zn925       O937   2.043       .  S
O927        C939   1.274       .  A
O930        C939   1.274       .  A
O931        C941   1.267       .  A
O932        C940   1.274       .  A
O933        C942   1.277       .  A
O935        C942   1.272       .  A
O936        C943   1.278       .  A
O938        C944   1.272       .  A
C939       C1139   1.494       .  S
C940        C974   1.454       .  S
C941       C1102   1.441       .  S
C942       C1148   1.509       .  S
C944       C1032   1.450       .  S
Zn945       O949   1.960       .  S
Zn945       O950   2.077       .  S
Zn945       O954   1.986       .  S
Zn945       O961   2.022       .  S
Zn946       O949   2.004       .  S
Zn946       O951   2.008       .  S
Zn946       O953   2.050       .  S
Zn946       O957   2.025       .  S
Zn947       O949   1.978       .  S
Zn947       O952   2.030       .  S
Zn947       O955   2.037       .  S
Zn947       O958   2.058       .  S
Zn948       O949   1.950       .  S
Zn948       O956   2.066       .  S
Zn948       O959   1.990       .  S
Zn948       O960   2.025       .  S
O950        C962   1.278       .  A
O951        C963   1.272       .  A
O952        C964   1.275       .  A
O953        C962   1.274       .  A
O954        C964   1.272       .  A
O955        C963   1.279       .  A
O956        C965   1.276       .  A
O957        C966   1.271       .  A
O958        C965   1.275       .  A
O959        C966   1.277       .  A
O960        C967   1.273       .  A
O961        C967   1.273       .  A
C962       C1173   1.493       .  S
C963        C976   1.469       .  S
C964       C1114   1.451       .  S
C965       C1128   1.509       .  S
C966        C968   1.462       .  S
C968        N969   1.345       .  A
C968        N973   1.367       .  A
N969        C970   1.336       .  A
C970        N971   1.360       .  A
C970       C1209   1.461       .  S
N971        C972   1.363       .  A
C972        N973   1.371       .  A
C974        N979   1.348       .  A
N975        C976   1.365       .  A
N977        C978   1.354       .  A
C978        N979   1.342       .  A
C978       C1185   1.454       .  S
Zn980       O984   1.930   1_545  S
Zn980       O985   2.040       .  S
Zn980       O989   1.968       .  S
Zn980       O996   1.942       .  S
Zn981       O984   1.993   1_545  S
Zn981       O986   2.038       .  S
Zn981       O988   2.080       .  S
Zn981       O992   1.985       .  S
Zn982      O1389   1.956       .  S
Zn982       O987   2.016       .  S
Zn982       O990   1.990       .  S
Zn982       O993   2.059       .  S
Zn983      O1389   1.980       .  S
Zn983       O991   2.090       .  S
Zn983       O994   2.024       .  S
Zn983       O995   2.067       .  S
O984      Zn1387   1.950       .  S
O984      Zn1388   1.978       .  S
O985        C997   1.272       .  A
O986       C1403   1.273   1_545  A
O987       C1404   1.271       .  A
O988        C997   1.277       .  A
O989        C999   1.268   1_545  A
O990        C998   1.277       .  A
O991       C1000   1.279       .  A
O992       C1406   1.273   1_545  A
O993       C1000   1.275       .  A
O994       C1001   1.279       .  A
O995       C1407   1.279       .  A
O996       C1002   1.265       .  A
C997       C1137   1.493       .  S
C998       O1391   1.272       .  A
C999       O1392   1.270       .  A
C1000      C1146   1.515       .  S
C1001      O1397   1.273       .  A
C1001      C1067   1.453       .  S
C1002      O1400   1.279   1_545  A
C1002      C1108   1.453       .  S
Zn1003     O1007   1.966       .  S
Zn1003     O1008   1.991       .  S
Zn1003     O1012   2.064       .  S
Zn1003     O1019   2.053       .  S
Zn1004     O1007   1.988       .  S
Zn1004     O1009   2.066       .  S
Zn1004     O1011   2.008       .  S
Zn1004     O1015   2.026       .  S
Zn1005     O1007   1.950       .  S
Zn1005     O1010   1.995       .  S
Zn1005     O1013   2.039       .  S
Zn1005     O1016   1.966       .  S
Zn1006     O1007   1.966       .  S
Zn1006     O1014   2.056       .  S
Zn1006     O1017   2.046       .  S
Zn1006     O1018   2.091       .  S
O1008      C1020   1.277       .  A
O1009      C1021   1.275       .  A
O1010      C1022   1.271       .  A
O1011      C1020   1.274       .  A
O1012      C1022   1.276       .  A
O1013      C1021   1.272       .  A
O1014      C1023   1.281       .  A
O1015      C1024   1.274       .  A
O1016      C1023   1.269       .  A
O1017      C1024   1.281       .  A
O1018      C1025   1.279       .  A
O1019      C1025   1.275       .  A
C1020      C1034   1.455       .  S
C1021      C1166   1.488       .  S
C1023      C1075   1.458       .  S
C1024      C1026   1.476       .  S
C1025      C1155   1.513       .  S
C1026      N1027   1.355       .  A
C1026      N1031   1.370       .  A
N1027      C1028   1.351       .  A
C1028      N1029   1.353       .  A
C1028      C1180   1.465       .  S
N1029      C1030   1.354       .  A
C1030      N1031   1.369       .  A
C1032      N1037   1.349       .  A
N1033      C1034   1.363       .  A
N1035      C1036   1.342       .  A
C1036      N1037   1.350       .  A
C1036      C1193   1.449       .  S
Zn1038     O1042   1.968       .  S
Zn1038     O1043   2.019       .  S
Zn1038     O1047   2.054       .  S
Zn1038     O1054   1.981       .  S
Zn1039     O1042   1.931       .  S
Zn1039     O1044   1.955       .  S
Zn1039     O1046   1.952       .  S
Zn1039     O1050   2.044       .  S
Zn1040     O1042   1.947       .  S
Zn1040     O1045   2.058       .  S
Zn1040     O1048   2.002       .  S
Zn1040     O1051   1.982       .  S
Zn1041     O1042   1.988       .  S
Zn1041     O1049   2.043       .  S
Zn1041     O1052   2.078       .  S
Zn1041     O1053   1.987       .  S
O1043      C1055   1.272       .  A
O1044      C1056   1.267       .  A
O1045      C1057   1.274       .  A
O1046      C1055   1.267       .  A
O1047      C1057   1.274       .  A
O1048      C1056   1.271       .  A
O1049      C1058   1.275       .  A
O1050      C1059   1.272       .  A
O1051      C1058   1.274       .  A
O1052      C1059   1.276       .  A
O1053      C1060   1.272       .  A
O1054      C1060   1.274       .  A
C1055      C1120   1.443       .  S
C1056      C1073   1.435       .  S
C1057      C1130   1.506       .  S
C1058      C1061   1.464       .  S
C1059      C1175   1.494       .  S
C1060      C1071   1.447   1_545  S
C1061      N1062   1.350       .  A
C1061      N1066   1.365       .  A
N1062      C1063   1.343       .  A
C1063      N1064   1.355       .  A
C1063      C1212   1.461       .  S
N1064      C1065   1.357       .  A
C1065      N1066   1.368       .  A
C1067      N1068   1.355       .  A
C1067      N1477   1.355       .  A
N1068      C1069   1.358       .  A
C1069      N1070   1.346       .  A
C1069      C1184   1.456       .  S
N1070      C1476   1.350       .  A
C1071      N1475   1.349       .  A
C1071      N1072   1.355   1_565  A
N1072      C1472   1.356   1_545  A
C1073      N1074   1.357       .  A
C1073      N1078   1.349       .  A
N1074      C1075   1.357   1_554  A
C1075      N1076   1.358       .  A
N1076      C1077   1.358   1_556  A
C1077      N1078   1.345       .  A
C1077      C1188   1.463       .  S
Zn1079     O1083   1.984       .  S
Zn1079     O1084   2.033       .  S
Zn1079     O1088   2.037       .  S
Zn1079     O1095   2.051       .  S
Zn1080     O1083   1.985       .  S
Zn1080     O1085   2.075       .  S
Zn1080     O1087   2.021       .  S
Zn1080     O1091   2.022       .  S
Zn1081     O1083   1.960       .  S
Zn1081     O1086   1.988       .  S
Zn1081     O1089   2.066       .  S
Zn1081     O1092   2.009       .  S
Zn1082     O1083   1.974       .  S
Zn1082     O1090   2.068       .  S
Zn1082     O1093   2.025       .  S
Zn1082     O1094   2.072       .  S
O1084      C1096   1.276       .  A
O1085      C1097   1.277       .  A
O1086      C1098   1.271       .  A
O1087      C1096   1.275       .  A
O1088      C1098   1.276       .  A
O1089      C1097   1.276       .  A
O1090      C1099   1.278       .  A
O1091      C1100   1.274       .  A
O1092      C1099   1.273       .  A
O1093      C1100   1.280       .  A
O1094      C1101   1.277       .  A
O1095      C1101   1.274       .  A
C1096      C1122   1.472       .  S
C1097      C1153   1.498       .  S
C1098      C1112   1.455       .  S
C1099      C1106   1.474       .  S
C1100      C1116   1.467       .  S
C1101      C1162   1.508       .  S
C1102      N1103   1.349       .  A
N1103      C1104   1.343       .  A
C1104      N1105   1.354       .  A
C1104      C1196   1.459       .  S
C1106      N1107   1.367       .  A
C1108      N1109   1.356       .  A
C1108      N1518   1.361   1_545  A
N1109      C1110   1.350       .  A
C1110      N1111   1.352       .  A
C1110      C1181   1.465       .  S
N1111      C1517   1.352       .  A
C1112      N1516   1.353       .  A
C1112      N1113   1.363       .  A
N1113      C1513   1.362       .  A
C1114      N1115   1.365       .  A
C1114      N1119   1.344       .  A
C1116      N1117   1.354       .  A
C1118      N1119   1.341       .  A
C1118      C1205   1.461       .  S
C1120      N1121   1.357   1_554  A
C1120      N1125   1.346       .  A
N1121      C1527   1.363   1_545  A
C1122      N1526   1.363       .  A
C1122      N1123   1.366       .  A
N1123      C1529   1.363       .  A
C1124      N1528   1.361       .  A
C1124      N1125   1.342   1_556  A
C1124      C1200   1.462       .  S
C1126      C1532   1.414   1_545  A
C1127      C1531   1.411       .  A
C1127      C1128   1.414       .  A
C1127      H1132   1.083       .  S
C1129      C1535   1.418       .  A
C1129      H1133   1.083       .  S
C1130      C1534   1.416   1_545  A
C1130      C1131   1.414       .  A
C1131      H1134   1.083       .  S
C1135      C1136   1.422       .  A
C1135      C1140   1.421       .  A
C1136      C1137   1.416       .  A
C1136      H1141   1.083       .  S
C1137      C1138   1.405       .  A
C1138      C1139   1.405       .  A
C1138      H1142   1.084       .  S
C1139      C1140   1.417       .  A
C1140      H1143   1.083       .  S
C1144      C1145   1.413       .  A
C1144      C1149   1.412       .  A
C1145      C1146   1.418       .  A
C1145      H1150   1.083       .  S
C1146      C1147   1.416       .  A
C1147      C1148   1.420       .  A
C1147      H1151   1.083       .  S
C1148      C1149   1.415       .  A
C1149      H1152   1.083       .  S
C1153      C1559   1.413       .  A
C1154      C1558   1.413   1_545  A
C1154      C1155   1.417       .  A
C1154      H1159   1.083       .  S
C1156      C1562   1.415   1_545  A
C1156      H1160   1.083       .  S
C1157      C1561   1.420       .  A
C1157      C1158   1.409       .  A
C1158      H1161   1.084       .  S
C1162      C1163   1.419       .  A
C1162      C1167   1.417       .  A
C1163      C1164   1.412       .  A
C1163      H1168   1.083       .  S
C1164      C1165   1.406       .  A
C1165      C1166   1.406       .  A
C1165      H1169   1.084       .  S
C1166      C1167   1.412       .  A
C1167      H1170   1.083       .  S
C1171      C1172   1.419       .  A
C1171      C1176   1.420       .  A
C1172      C1173   1.414       .  A
C1172      H1177   1.083       .  S
C1173      C1174   1.407       .  A
C1174      C1175   1.408       .  A
C1174      H1178   1.084       .  S
C1175      C1176   1.414       .  A
C1176      H1179   1.083       .  S
C1180      C1181   1.341       .  D
C1180      H1182   1.087       .  S
C1181      H1183   1.087       .  S
C1184      C1185   1.330       .  D
C1184      H1186   1.087       .  S
C1185      H1187   1.087       .  S
C1188      C1189   1.332       .  D
C1188      H1190   1.087       .  S
C1189      H1191   1.087   1_554  S
C1192      C1193   1.332       .  D
C1192      H1194   1.087       .  S
C1193      H1195   1.088       .  S
C1196      C1197   1.331       .  D
C1196      H1198   1.087       .  S
C1197      H1199   1.087       .  S
C1200      C1606   1.327       .  D
C1200      H1202   1.087   1_556  S
C1201      C1605   1.324       .  D
C1201      H1203   1.087       .  S
C1208      C1209   1.325       .  D
C1208      H1210   1.087       .  S
C1209      H1211   1.087       .  S
C1212      C1213   1.333       .  D
C1212      H1214   1.087       .  S
C1213      H1215   1.087       .  S
Zn1216     O1220   1.968       .  S
Zn1216     O1221   2.017       .  S
Zn1216     O1225   1.991       .  S
Zn1216     O1232   2.073       .  S
Zn1217     O1220   1.992       .  S
Zn1217     O1222   2.073       .  S
Zn1217     O1224   2.084       .  S
Zn1217     O1228   2.050       .  S
Zn1218     O1220   1.992       .  S
Zn1218     O1223   2.051       .  S
Zn1218     O1226   2.080       .  S
Zn1218     O1229   2.055       .  S
Zn1219     O1220   1.989       .  S
Zn1219     O1227   2.017       .  S
Zn1219     O1230   2.023       .  S
Zn1219     O1231   2.095       .  S
O1221      C1233   1.274       .  A
O1222      C1234   1.277       .  A
O1223      C1235   1.278       .  A
O1224      C1233   1.281       .  A
O1225      C1235   1.272       .  A
O1226      C1234   1.278       .  A
O1227      C1236   1.273       .  A
O1228      C1237   1.281       .  A
O1229      C1236   1.279       .  A
O1230      C1237   1.277       .  A
O1231      C1238   1.279       .  A
O1232      C1238   1.276       .  A
C1233      C1249   1.480       .  S
C1234      C1576   1.515       .  S
C1235      C1243   1.461       .  S
C1236      C1255   1.478       .  S
C1237      C1259   1.475       .  S
C1238      C1531   1.506       .  S
C1239      C1348   1.459       .  S
C1239      N1240   1.352       .  A
N1240      C1241   1.346       .  A
C1241      N1242   1.356       .  A
C1241      C1618   1.461       .  S
C1243      N1244   1.364       .  A
C1245      C1403   1.462       .  S
C1245      N1246   1.347       .  A
N1246      C1247   1.338       .  A
C1247      N1248   1.360       .  A
C1247      C1613   1.464       .  S
C1249      N1250   1.372       .  A
C1251      C1427   1.467       .  S
C1251      N1252   1.352       .  A
C1251      N1256   1.367   1_556  A
N1252      C1253   1.352   1_556  A
C1253      C1609   1.462       .  S
N1254      C1255   1.362       .  A
C1257      C1307   1.445   1_545  S
C1257      N1258   1.361       .  A
C1257      N1262   1.346       .  A
C1259      N1260   1.363       .  A
C1261      N1262   1.342       .  A
C1261      C1606   1.462       .  S
Zn1263     O1267   1.976       .  S
Zn1263     O1268   2.043       .  S
Zn1263     O1272   2.057       .  S
Zn1263     O1279   2.022       .  S
Zn1264     O1267   1.999       .  S
Zn1264     O1269   2.014       .  S
Zn1264     O1271   2.046       .  S
Zn1264     O1275   2.074       .  S
Zn1265     O1267   1.995       .  S
Zn1265     O1270   2.104       .  S
Zn1265     O1273   2.057       .  S
Zn1265     O1276   2.083       .  S
Zn1266     O1267   1.973       .  S
Zn1266     O1274   2.014       .  S
Zn1266     O1277   2.081       .  S
Zn1266     O1278   2.021       .  S
O1268      C1280   1.280       .  A
O1269      C1281   1.275       .  A
O1270      C1282   1.282       .  A
O1271      C1280   1.275       .  A
O1272      C1282   1.275       .  A
O1273      C1281   1.282       .  A
O1274      C1283   1.273       .  A
O1275      C1284   1.277       .  A
O1276      C1283   1.281       .  A
O1277      C1284   1.278       .  A
O1278      C1285   1.275       .  A
O1279      C1285   1.274       .  A
C1280      C1435   1.482       .  S
C1281      C1311   1.474       .  S
C1282      C1540   1.516       .  S
C1283      C1377   1.478       .  S
C1284      C1549   1.501       .  S
C1285      C1470   1.460       .  S
Zn1286     O1290   1.992       .  S
Zn1286     O1291   2.061       .  S
Zn1286     O1295   2.013       .  S
Zn1286     O1302   1.993       .  S
Zn1287     O1290   1.928       .  S
Zn1287     O1292   1.956       .  S
Zn1287     O1294   2.055       .  S
Zn1287     O1298   1.957       .  S
Zn1288     O1290   1.967       .  S
Zn1288     O1293   2.010       .  S
Zn1288     O1296   2.045       .  S
Zn1288     O1299   2.059       .  S
Zn1289     O1290   1.967       .  S
Zn1289     O1297   2.059       .  S
Zn1289     O1300   2.030       .  S
Zn1289     O1301   2.011       .  S
O1291      C1303   1.274       .  A
O1292      C1304   1.269       .  A
O1293      C1305   1.278       .  A
O1294      C1303   1.273       .  A
O1295      C1305   1.272       .  A
O1296      C1304   1.275       .  A
O1297      C1306   1.276       .  A
O1298      C1307   1.267       .  A
O1299      C1306   1.275       .  A
O1300      C1307   1.273       .  A
O1301      C1308   1.278       .  A
O1302      C1308   1.270       .  A
C1303      C1569   1.492       .  S
C1304      C1323   1.454       .  S
C1305      C1309   1.462       .  S
C1306      C1562   1.507       .  S
C1308      C1317   1.457       .  S
C1309      N1310   1.363       .  A
C1309      N1314   1.348       .  A
N1310      C1311   1.367       .  A
C1311      N1312   1.360       .  A
N1312      C1313   1.359       .  A
C1313      N1314   1.344       .  A
C1313      C1602   1.460       .  S
C1315      C1404   1.438       .  S
C1315      N1320   1.349       .  A
N1316      C1317   1.364       .  A
N1318      C1319   1.348       .  A
C1319      N1320   1.341       .  A
C1319      C1597   1.449       .  S
C1321      C1372   1.459       .  S
C1321      N1322   1.366   1_554  A
C1321      N1326   1.355       .  A
N1322      C1323   1.363       .  A
C1323      N1324   1.349       .  A
N1324      C1325   1.343   1_556  A
C1325      N1326   1.354       .  A
C1325      C1594   1.456       .  S
Zn1327     O1332   2.059       .  S
Zn1327     O1336   1.972       .  S
Zn1327     O1343   1.975       .  S
Zn1328     O1333   2.013       .  S
Zn1328     O1335   2.060       .  S
Zn1328     O1339   2.024       .  S
Zn1329     O1331   1.945       .  S
Zn1329     O1334   2.015       .  S
Zn1329     O1337   1.981       .  S
Zn1329     O1340   2.039       .  S
Zn1330     O1331   1.968       .  S
Zn1330     O1338   2.074       .  S
Zn1330     O1341   2.010       .  S
Zn1330     O1342   2.046       .  S
O1332      C1344   1.275       .  A
O1335      C1344   1.275       .  A
O1336      C1346   1.268       .  A
O1337      C1345   1.274       .  A
O1338      C1347   1.276       .  A
O1340      C1347   1.273       .  A
O1341      C1348   1.278       .  A
O1343      C1349   1.271       .  A
C1344      C1544   1.492       .  S
C1345      C1379   1.456       .  S
C1346      C1507   1.448       .  S
C1347      C1553   1.506       .  S
C1349      C1437   1.451       .  S
Zn1350     O1354   1.959       .  S
Zn1350     O1355   2.080       .  S
Zn1350     O1359   1.971       .  S
Zn1350     O1366   2.012       .  S
Zn1351     O1354   2.000       .  S
Zn1351     O1356   2.005       .  S
Zn1351     O1358   2.052       .  S
Zn1351     O1362   2.021       .  S
Zn1352     O1354   1.974       .  S
Zn1352     O1357   2.038       .  S
Zn1352     O1360   2.041       .  S
Zn1352     O1363   2.072       .  S
Zn1353     O1354   1.952       .  S
Zn1353     O1361   2.060       .  S
Zn1353     O1364   1.988       .  S
Zn1353     O1365   2.023       .  S
O1355      C1367   1.278       .  A
O1356      C1368   1.271       .  A
O1357      C1369   1.277       .  A
O1358      C1367   1.274       .  A
O1359      C1369   1.270       .  A
O1360      C1368   1.280       .  A
O1361      C1370   1.274       .  A
O1362      C1371   1.271       .  A
O1363      C1370   1.277       .  A
O1364      C1371   1.276       .  A
O1365      C1372   1.273       .  A
O1366      C1372   1.272       .  A
C1367      C1578   1.495       .  S
C1368      C1381   1.469       .  S
C1369      C1519   1.448       .  S
C1370      C1533   1.511       .  S
C1371      C1373   1.462       .  S
C1373      N1374   1.347       .  A
C1373      N1378   1.367       .  A
N1374      C1375   1.339       .  A
C1375      N1376   1.360       .  A
C1375      C1614   1.464       .  S
N1376      C1377   1.364       .  A
C1377      N1378   1.369       .  A
C1379      N1384   1.349       .  A
N1380      C1381   1.367       .  A
N1382      C1383   1.353       .  A
C1383      N1384   1.342       .  A
C1383      C1590   1.456       .  S
Zn1385     O1389   1.928       .  S
Zn1385     O1390   2.044       .  S
Zn1385     O1394   1.942       .  S
Zn1385     O1401   1.950       .  S
Zn1386     O1389   1.995       .  S
Zn1386     O1391   2.033       .  S
Zn1386     O1393   2.085       .  S
Zn1386     O1397   1.975       .  S
Zn1387     O1392   2.008       .  S
Zn1387     O1395   1.974       .  S
Zn1387     O1398   2.042       .  S
Zn1388     O1396   2.083       .  S
Zn1388     O1399   2.031       .  S
Zn1388     O1400   2.063       .  S
O1390      C1402   1.271       .  A
O1393      C1402   1.276       .  A
O1394      C1404   1.267       .  A
O1395      C1403   1.274       .  A
O1396      C1405   1.279       .  A
O1398      C1405   1.272       .  A
O1399      C1406   1.278       .  A
O1401      C1407   1.266       .  A
C1402      C1542   1.497       .  S
C1405      C1551   1.510       .  S
C1406      C1472   1.458       .  S
C1407      C1513   1.455       .  S
Zn1408     O1412   1.966       .  S
Zn1408     O1413   1.989       .  S
Zn1408     O1417   2.049       .  S
Zn1408     O1424   2.048       .  S
Zn1409     O1412   1.989       .  S
Zn1409     O1414   2.058       .  S
Zn1409     O1416   1.997       .  S
Zn1409     O1420   2.030       .  S
Zn1410     O1412   1.949       .  S
Zn1410     O1415   1.998       .  S
Zn1410     O1418   2.047       .  S
Zn1410     O1421   1.957       .  S
Zn1411     O1412   1.966       .  S
Zn1411     O1419   2.053       .  S
Zn1411     O1422   2.045       .  S
Zn1411     O1423   2.094       .  S
O1413      C1425   1.276       .  A
O1414      C1426   1.274       .  A
O1415      C1427   1.271       .  A
O1416      C1425   1.273       .  A
O1417      C1427   1.274       .  A
O1418      C1426   1.273       .  A
O1419      C1428   1.280       .  A
O1420      C1429   1.273       .  A
O1421      C1428   1.269       .  A
O1422      C1429   1.282       .  A
O1423      C1430   1.279       .  A
O1424      C1430   1.274       .  A
C1425      C1439   1.452       .  S
C1426      C1571   1.488       .  S
C1428      C1480   1.453       .  S
C1429      C1431   1.476       .  S
C1430      C1560   1.514       .  S
C1431      N1432   1.353       .  A
C1431      N1436   1.372       .  A
N1432      C1433   1.348       .  A
C1433      N1434   1.353       .  A
C1433      C1585   1.465       .  S
N1434      C1435   1.356       .  A
C1435      N1436   1.372       .  A
C1437      N1442   1.349       .  A
N1438      C1439   1.362       .  A
N1440      C1441   1.344       .  A
C1441      N1442   1.349       .  A
C1441      C1598   1.452       .  S
Zn1443     O1447   1.966       .  S
Zn1443     O1448   2.002       .  S
Zn1443     O1452   2.038       .  S
Zn1443     O1459   1.963       .  S
Zn1444     O1447   1.925       .  S
Zn1444     O1449   1.948       .  S
Zn1444     O1451   1.947       .  S
Zn1444     O1455   2.043       .  S
Zn1445     O1447   1.941       .  S
Zn1445     O1450   2.055       .  S
Zn1445     O1453   2.007       .  S
Zn1445     O1456   1.987       .  S
Zn1446     O1447   1.986       .  S
Zn1446     O1454   2.039       .  S
Zn1446     O1457   2.072       .  S
Zn1446     O1458   1.988       .  S
O1448      C1460   1.269       .  A
O1449      C1461   1.266       .  A
O1450      C1462   1.275       .  A
O1451      C1460   1.267       .  A
O1452      C1462   1.271       .  A
O1453      C1461   1.272       .  A
O1454      C1463   1.274       .  A
O1455      C1464   1.272       .  A
O1456      C1463   1.275       .  A
O1457      C1464   1.276       .  A
O1458      C1465   1.272       .  A
O1459      C1465   1.272       .  A
C1460      C1525   1.437       .  S
C1461      C1478   1.434       .  S
C1462      C1535   1.501       .  S
C1463      C1466   1.464       .  S
C1464      C1580   1.492       .  S
C1465      C1476   1.444       .  S
C1466      N1467   1.351       .  A
C1466      N1471   1.365       .  A
N1467      C1468   1.343       .  A
C1468      N1469   1.353       .  A
C1468      C1617   1.460       .  S
N1469      C1470   1.354       .  A
C1470      N1471   1.368       .  A
C1472      N1473   1.356       .  A
N1473      C1474   1.359       .  A
C1474      N1475   1.346       .  A
C1474      C1589   1.456       .  S
C1476      N1477   1.353       .  A
C1478      N1479   1.359       .  A
C1478      N1483   1.350       .  A
N1479      C1480   1.357   1_554  A
C1480      N1481   1.354       .  A
N1481      C1482   1.355   1_556  A
C1482      N1483   1.345       .  A
C1482      C1593   1.460       .  S
Zn1484     O1488   1.983       .  S
Zn1484     O1489   2.031       .  S
Zn1484     O1493   2.035       .  S
Zn1484     O1500   2.054       .  S
Zn1485     O1488   1.988       .  S
Zn1485     O1490   2.067       .  S
Zn1485     O1492   2.008       .  S
Zn1485     O1496   2.023       .  S
Zn1486     O1488   1.958       .  S
Zn1486     O1491   1.980       .  S
Zn1486     O1494   2.050       .  S
Zn1486     O1497   1.995       .  S
Zn1487     O1488   1.970       .  S
Zn1487     O1495   2.084       .  S
Zn1487     O1498   2.033       .  S
Zn1487     O1499   2.085       .  S
O1489      C1501   1.277       .  A
O1490      C1502   1.275       .  A
O1491      C1503   1.269       .  A
O1492      C1501   1.274       .  A
O1493      C1503   1.276       .  A
O1494      C1502   1.273       .  A
O1495      C1504   1.281       .  A
O1496      C1505   1.274       .  A
O1497      C1504   1.271       .  A
O1498      C1505   1.281       .  A
O1499      C1506   1.279       .  A
O1500      C1506   1.275       .  A
C1501      C1527   1.468       .  S
C1502      C1558   1.492       .  S
C1503      C1517   1.452   1_565  S
C1504      C1511   1.477       .  S
C1505      C1521   1.469       .  S
C1506      C1567   1.511       .  S
C1507      N1508   1.347       .  A
N1508      C1509   1.341       .  A
C1509      N1510   1.356       .  A
C1509      C1601   1.462       .  S
C1511      N1512   1.366       .  A
C1513      N1514   1.355       .  A
N1514      C1515   1.350       .  A
C1515      N1516   1.353       .  A
C1515      C1586   1.466       .  S
C1517      N1518   1.362   1_545  A
C1519      N1520   1.363   1_655  A
C1519      N1524   1.345       .  A
C1521      N1522   1.354       .  A
C1523      N1524   1.341   1_455  A
C1523      C1610   1.461   1_455  S
C1525      N1526   1.356   1_554  A
C1525      N1530   1.342       .  A
C1527      N1528   1.362   1_565  A
C1529      N1530   1.338   1_556  A
C1529      C1605   1.462       .  S
C1532      C1533   1.418       .  A
C1532      H1537   1.083       .  S
C1534      H1538   1.083       .  S
C1535      C1536   1.409       .  A
C1536      H1539   1.084       .  S
C1540      C1541   1.423       .  A
C1540      C1545   1.418       .  A
C1541      C1542   1.416       .  A
C1541      H1546   1.083       .  S
C1542      C1543   1.407       .  A
C1543      C1544   1.407       .  A
C1543      H1547   1.084       .  S
C1544      C1545   1.415       .  A
C1545      H1548   1.083       .  S
C1549      C1550   1.414       .  A
C1549      C1554   1.412       .  A
C1550      C1551   1.420       .  A
C1550      H1555   1.083       .  S
C1551      C1552   1.412       .  A
C1552      C1553   1.415       .  A
C1552      H1556   1.083       .  S
C1553      C1554   1.416       .  A
C1554      H1557   1.083       .  S
C1559      C1560   1.416       .  A
C1559      H1564   1.083       .  S
C1561      H1565   1.083       .  S
C1562      C1563   1.414       .  A
C1563      H1566   1.083       .  S
C1567      C1568   1.421       .  A
C1567      C1572   1.417       .  A
C1568      C1569   1.415       .  A
C1568      H1573   1.083       .  S
C1569      C1570   1.405       .  A
C1570      C1571   1.405       .  A
C1570      H1574   1.084       .  S
C1571      C1572   1.412       .  A
C1572      H1575   1.083       .  S
C1576      C1577   1.421       .  A
C1576      C1581   1.420       .  A
C1577      C1578   1.416       .  A
C1577      H1582   1.083       .  S
C1578      C1579   1.407       .  A
C1579      C1580   1.407       .  A
C1579      H1583   1.084       .  S
C1580      C1581   1.413       .  A
C1581      H1584   1.083       .  S
C1585      C1586   1.339       .  D
C1585      H1587   1.087       .  S
C1586      H1588   1.087       .  S
C1589      C1590   1.331       .  D
C1589      H1591   1.087       .  S
C1590      H1592   1.087       .  S
C1593      C1594   1.332       .  D
C1593      H1595   1.087       .  S
C1594      H1596   1.088   1_554  S
C1597      C1598   1.333       .  D
C1597      H1599   1.087       .  S
C1598      H1600   1.087       .  S
C1601      C1602   1.330       .  D
C1601      H1603   1.087       .  S
C1602      H1604   1.087       .  S
C1605      H1607   1.088   1_556  S
C1606      H1608   1.087       .  S
C1613      C1614   1.327       .  D
C1613      H1615   1.087       .  S
C1614      H1616   1.087       .  S
C1617      C1618   1.334       .  D
C1617      H1619   1.087       .  S
C1618      H1620   1.087       .  S
