geometry optimzed in LAMMPS
_audit_creation_date              2020-11-30 
_audit_creation_method            'lammps2cif' 
_symmetry_space_group_name_H-M    'P1' 
_symmetry_Int_Tables_number       1 
_symmetry_cell_setting            triclinic 
loop_ 
_symmetry_equiv_pos_as_xyz 
  x,y,z 
_cell_length_a                    43.25512690654846 
_cell_length_b                    21.32774288062341 
_cell_length_c                    29.013277023819175 
_cell_angle_alpha                 89.63746039187487 
_cell_angle_beta                  122.44487504893348 
_cell_angle_gamma                 89.79882138220042 
loop_ 
_atom_site_label 
_atom_site_type_symbol 
_atom_site_fract_x 
_atom_site_fract_y 
_atom_site_fract_z 
_atom_site_charge 
O1          O  0.09960891  0.83610788  0.76605818    -0.57580
C2          C  0.04263942  0.95515609  0.61660455     0.75050
O3          O  0.09826989  0.04482268  0.77456728    -0.58740
C4          C  0.13020750  0.84516287  0.81035623     0.75020
C5          C  0.15548952  0.93666064  0.71350818     0.77410
Cd6        Cd  0.09677010  0.94417443  0.73110599     1.37470
O7          O  0.04256620  0.90747028  0.64308739    -0.57580
O8          O  0.13439410  0.89154124  0.70562994    -0.56390
C9          C  0.07401541  0.02940437  0.78444433     0.77370
O10         O  0.14976022  0.98782875  0.73018929    -0.58760
O11         O  0.06508326  0.99786116  0.64458002    -0.57210
O12         O  0.14292191  0.90019475  0.81772005    -0.57200
O13         O  0.06041520  0.97522275  0.76951316    -0.56370
O14         O  0.30234717  0.72797928  0.64911068    -0.57580
C15         C  0.30656620  0.88392808  0.54373523     0.75050
O16         O  0.20722043  0.77559405  0.48271242    -0.58740
C17         C  0.27328625  0.70311522  0.64193338     0.75020
C18         C  0.24189972  0.87473232  0.62682800     0.77410
Cd19       Cd  0.26501239  0.80176139  0.56931465     1.37470
O20         O  0.32162018  0.83436801  0.57182270    -0.57580
O21         O  0.27371791  0.85086188  0.65060001    -0.56390
C22         C  0.22036485  0.72651840  0.47472558     0.77370
O23         O  0.22210937  0.87106613  0.57507379    -0.58760
O24         O  0.27385070  0.89465669  0.52977252    -0.57210
O25         O  0.24337938  0.72162048  0.60049523    -0.57200
O26         O  0.25455592  0.71738420  0.50648267    -0.56370
O27         O  0.30366388  0.97593458  0.43441919    -0.57580
C28         C  0.21084256  0.03358103  0.26476435     0.75050
O29         O  0.23917014  0.84402223  0.29953906    -0.58740
C30         C  0.30240149  0.92982857  0.46148457     0.75020
C31         C  0.19637332  0.95776835  0.37748629     0.77410
Cd32       Cd  0.24825135  0.94067389  0.34786937     1.37460
O33         O  0.24333829  0.04394975  0.30476340    -0.57580
O34         O  0.21732293  0.99987854  0.37867693    -0.56390
C35         C  0.26451171  0.85263793  0.29042766     0.77370
O36         O  0.19802487  0.90434446  0.35944940    -0.58760
O37         O  0.19784014  0.97994035  0.26318369    -0.57210
O38         O  0.27954929  0.88729986  0.43401237    -0.57200
O39         O  0.28398412  0.90117322  0.31083222    -0.56370
O40         O  0.01980515  0.05586480  0.50787573    -0.57580
C41         C  0.06193602  0.19708996  0.43519210     0.75050
O42         O  0.13251474  0.12367563  0.59575038    -0.58740
C43         C  0.03611701  0.00608520  0.53442536     0.75020
C44         C  0.11158056  0.02935847  0.46847611     0.77410
Cd45       Cd  0.07526194  0.09585540  0.51013856     1.37470
O46         O  0.03734767  0.15549139  0.42001242    -0.57580
O47         O  0.07725179  0.03764021  0.43893078    -0.56390
C48         C  0.11827529  0.16669172  0.60860006     0.77370
O49         O  0.12745686  0.04457380  0.51819542    -0.58760
O50         O  0.08768250  0.19507738  0.48473195    -0.57210
O51         O  0.06875769  0.99848352  0.54714454    -0.57200
O52         O  0.08365772  0.17251186  0.57853759    -0.56370
C53         C  0.02036788  0.96124795  0.55576398     0.00800
C54         C  0.32384741  0.92535089  0.52242152     0.00800
O55         O  0.29995057  0.40807623  0.93543282    -0.57580
C56         C  0.20697792  0.35719153  0.76696806     0.75050
O57         O  0.19539787  0.49533570  0.85848195    -0.58740
C58         C  0.30129396  0.45544096  0.96286680     0.75020
C59         C  0.25985381  0.53627932  0.78880257     0.77410
Cd60       Cd  0.24485756  0.44946746  0.84964952     1.37460
O61         O  0.23963009  0.34602320  0.80673872    -0.57580
O62         O  0.27851076  0.48614538  0.80792261    -0.56390
C63         C  0.18865457  0.44279640  0.87211938     0.77370
O64         O  0.23676105  0.54785495  0.80190414    -0.58760
O65         O  0.19426299  0.41097596  0.76577045    -0.57210
O66         O  0.27933432  0.49997665  0.93603188    -0.57200
O67         O  0.20817046  0.39630459  0.87601570    -0.56370
O68         O  0.02915105  0.23722790  0.91021502    -0.57580
C69         C  0.03641759  0.37873893  0.03269190     0.75050
O70         O  0.12899445  0.24246436  0.07114046    -0.58740
C71         C  0.05225738  0.19373622  0.92032298     0.75020
C72         C  0.10103653  0.36714903  0.95299208     0.77410
Cd73       Cd  0.07157645  0.28988908  0.99974315     1.37470
O74         O  0.01901530  0.33059120  0.00547999    -0.57580
O75         O  0.06858596  0.34698572  0.92542584    -0.56390
C76         C  0.11575775  0.21124636  0.09380906     0.77370
O77         O  0.11953488  0.35497149  0.00381786    -0.58760
O78         O  0.06855549  0.38490468  0.04298385    -0.57210
O79         O  0.08087195  0.19228906  0.96752124    -0.57200
O80         O  0.08169970  0.21826499  0.07365044    -0.56370
O81         O  0.10000786  0.55125261  0.26537383    -0.57580
C82         C  0.04605505  0.43090914  0.11668283     0.75050
O83         O  0.15389279  0.39807640  0.23390497    -0.58740
C84         C  0.13114170  0.54294066  0.30930007     0.75020
C85         C  0.08181760  0.35787826  0.29107826     0.77410
Cd86       Cd  0.10010047  0.44317106  0.23192833     1.37460
O87         O  0.04523839  0.47781413  0.14284887    -0.57580
O88         O  0.06233888  0.40620507  0.26753466    -0.56390
C89         C  0.16108678  0.44933973  0.21902643     0.77370
O90         O  0.10765754  0.34697014  0.28357325    -0.58760
O91         O  0.07012336  0.38957828  0.14492316    -0.57210
O92         O  0.14501930  0.48860336  0.31700686    -0.57200
O93         O  0.14070340  0.49595539  0.21151367    -0.56370
O94         O  0.30326093  0.66268144  0.14934596    -0.57580
C95         C  0.30855533  0.50212231  0.04610659     0.75050
O96         O  0.22786744  0.51821365  0.08362995    -0.58740
C97         C  0.27321684  0.68486635  0.14129008     0.75020
C98         C  0.22306305  0.66152676  0.97711656     0.77410
Cd99       Cd  0.26855489  0.58626985  0.07277965     1.37470
O100        O  0.32410060  0.55155368  0.07296587    -0.57580
O101        O  0.25716909  0.67103152  0.00848748    -0.56390
C102        C  0.24883392  0.51374136  0.13526435     0.77370
O103        O  0.21058641  0.61237931  0.98618917    -0.58760
O104        O  0.27611290  0.49273393  0.03379477    -0.57210
O105        O  0.24419496  0.66444370  0.10036649    -0.57200
O106        O  0.28068356  0.53618667  0.15676068    -0.56370
C107        C  0.32463466  0.45962560  0.02367804     0.00800
C108        C  0.02208987  0.42403340  0.05594067     0.00800
C109        C  0.19043038  0.45552293  0.20791986    -0.05890
C110        C  0.21379853  0.50717214  0.22915256    -0.17020
C111        C  0.23708761  0.52244331  0.21116221     0.11310
C112        C  0.23533062  0.48769248  0.16840517    -0.05820
C113        C  0.21390623  0.43362428  0.15005476    -0.17050
C114        C  0.19201041  0.41684926  0.17008634     0.11340
S115        S  0.26556581  0.59028329  0.24056245    -0.32020
S116        S  0.16430498  0.34870684  0.14235683    -0.32020
H117        H  0.13208293  0.37694125  0.13310044     0.29350
H118        H  0.29758443  0.55912608  0.25160211     0.29340
H119        H  0.21309626  0.53689701  0.25875538     0.19940
H120        H  0.21257317  0.40635118  0.11763865     0.19940
C121        C  0.15974421  0.43422346  0.88350706    -0.05890
C122        C  0.16109774  0.46854362  0.92563152    -0.17020
C123        C  0.14000241  0.45080918  0.94697965     0.11310
C124        C  0.11744594  0.39764406  0.92582476    -0.05820
C125        C  0.11385996  0.36682497  0.88075987    -0.17050
C126        C  0.13477414  0.38437111  0.85951760     0.11340
S127        S  0.14327877  0.49671308  0.00137566    -0.32020
S128        S  0.12982998  0.33907821  0.80367292    -0.32020
H129        H  0.13759766  0.38926985  0.77997613     0.29350
H130        H  0.10816579  0.48233507  0.99006147     0.29340
H131        H  0.18016740  0.50679000  0.94402604     0.19940
H132        H  0.09627283  0.32626365  0.86400914     0.19940
C133        C  0.07594154  0.31788172  0.32769195    -0.05890
C134        C  0.04019270  0.30573478  0.31506727    -0.17020
C135        C  0.03407288  0.26812637  0.34956256     0.11310
C136        C  0.06430220  0.24193612  0.39771418    -0.05820
C137        C  0.09979652  0.25623649  0.41069034    -0.17050
C138        C  0.10595284  0.29333237  0.37679592     0.11340
S139        S  0.98755447  0.25800423  0.33140099    -0.32020
S140        S  0.15309535  0.30936457  0.40023429    -0.32020
H141        H  0.14709864  0.37362731  0.38673671     0.29350
H142        H  0.99605888  0.25639279  0.38548047     0.29340
H143        H  0.01691814  0.32563545  0.27817679     0.19940
H144        H  0.12346434  0.23827422  0.44801679     0.19940
C145        C  0.14080770  0.21202054  0.65286877    -0.05890
C146        C  0.12611964  0.27220309  0.64784916    -0.17020
C147        C  0.14721656  0.32089537  0.68230812     0.11310
C148        C  0.18413362  0.30933574  0.72528724    -0.05820
C149        C  0.19864238  0.24875564  0.73090381    -0.17050
C150        C  0.17757010  0.20038917  0.69558187     0.11340
S151        S  0.12507422  0.39668242  0.66687074    -0.32020
S152        S  0.19882470  0.12440565  0.70924856    -0.32020
H153        H  0.16756135  0.09424452  0.70150606     0.29350
H154        H  0.15302532  0.42652224  0.66412033     0.29340
H155        H  0.09826550  0.28258296  0.61480057     0.19940
H156        H  0.22652673  0.23839865  0.76380048     0.19940
C157        C  0.27107943  0.73005279  0.17834055    -0.05890
C158        C  0.30323409  0.75788405  0.22073300    -0.17020
C159        C  0.30252895  0.79737292  0.25877685     0.11310
C160        C  0.26885550  0.80985003  0.25433378    -0.05820
C161        C  0.23687608  0.78291833  0.21168523    -0.17050
C162        C  0.23736082  0.74358147  0.17406163     0.11340
S163        S  0.34556786  0.82814045  0.31288565    -0.32020
S164        S  0.19340015  0.71234320  0.12263944    -0.32020
H165        H  0.20435768  0.64954204  0.13801733     0.29350
H166        H  0.33741078  0.82123669  0.35350280     0.29340
H167        H  0.32923931  0.74795807  0.22497393     0.19940
H168        H  0.21079079  0.79291921  0.20724288     0.19940
C169        C  0.18765391  0.08124854  0.22246996    -0.05890
C170        C  0.14941445  0.07442271  0.19488000    -0.17020
C171        C  0.12528387  0.11718385  0.15478342     0.11310
C172        C  0.13933893  0.16832711  0.14050727    -0.05820
C173        C  0.17760646  0.17575609  0.16877077    -0.17050
C174        C  0.20175931  0.13302253  0.20916497     0.11340
S175        S  0.07708565  0.10147024  0.12187939    -0.32020
S176        S  0.25003648  0.14555445  0.23961177    -0.32020
H177        H  0.25775028  0.08260513  0.23492917     0.29350
H178        H  0.06983857  0.15880609  0.13818586     0.29340
H179        H  0.13797318  0.03540297  0.20485300     0.19940
H180        H  0.18903067  0.21422390  0.15825881     0.19940
C181        C  0.13281038  0.00912739  0.44525908    -0.05890
C182        C  0.12138163  0.95790754  0.40971266    -0.17020
C183        C  0.14083998  0.93978920  0.38568534     0.11310
C184        C  0.17303293  0.97240681  0.39904930    -0.05820
C185        C  0.18396882  0.02356290  0.43459203    -0.17050
C186        C  0.16372881  0.04352718  0.45599590     0.11340
S187        S  0.12212663  0.87759353  0.33657642    -0.32020
S188        S  0.17746067  0.11651891  0.49286156    -0.32020
H189        H  0.14188183  0.13652003  0.47539685     0.29350
H190        H  0.12822287  0.90823144  0.29908145     0.29340
H191        H  0.09685315  0.93275656  0.39984276     0.19940
H192        H  0.20819174  0.04999325  0.44487906     0.19940
C193        C  0.27207339  0.65764701  0.68004293    -0.05890
C194        C  0.23796851  0.65074760  0.67481672    -0.17020
C195        C  0.23332602  0.61100171  0.70877251     0.11310
C196        C  0.26376858  0.57810173  0.75137116    -0.05820
C197        C  0.29800522  0.58408866  0.75684566    -0.17050
C198        C  0.30241849  0.62294326  0.72140045     0.11340
S199        S  0.18716273  0.60219150  0.69312090    -0.32020
S200        S  0.34690802  0.62469924  0.73029048    -0.32020
H201        H  0.33310458  0.62058787  0.67409590     0.29350
H202        H  0.18949147  0.53645713  0.69886238     0.29340
H203        H  0.21410651  0.67632027  0.64338209     0.19940
H204        H  0.32143471  0.55808355  0.78874138     0.19940
C205        C  0.19686077  0.68022544  0.43248009    -0.05890
C206        C  0.16715353  0.70067952  0.38157098    -0.17020
C207        C  0.14498311  0.65779121  0.34024862     0.11310
C208        C  0.15173099  0.59252269  0.35050329    -0.05820
C209        C  0.18101241  0.57263928  0.40207377    -0.17050
C210        C  0.20327051  0.61512833  0.44277696     0.11340
S211        S  0.11007400  0.68965507  0.27495004    -0.32020
S212        S  0.23830322  0.58253447  0.50791172    -0.32020
H213        H  0.23011750  0.62270864  0.53821050     0.29350
H214        H  0.12094715  0.65330368  0.24562488     0.29340
H215        H  0.16198281  0.75042425  0.37327607     0.19940
H216        H  0.18662473  0.52306593  0.41134040     0.19940
C217        C  0.06284082  0.07131302  0.81363094    -0.05890
C218        C  0.06160827  0.04616715  0.85746094    -0.17020
C219        C  0.05515470  0.08442486  0.89058043     0.11310
C220        C  0.04869267  0.14928590  0.87900475    -0.05820
C221        C  0.04792129  0.17391219  0.83339580    -0.17050
C222        C  0.05512437  0.13583706  0.80086860     0.11450
S223        S  0.05741985  0.04834595  0.94876369    -0.32020
S224        S  0.05491848  0.17268110  0.74460052    -0.32020
H225        H  0.04138672  0.12034468  0.71015184     0.29350
H226        H  0.03444566  0.09215987  0.95237820     0.29340
H227        H  0.06741464  0.99678170  0.86757885     0.19940
H228        H  0.04392876  0.22386155  0.82501290     0.19940
C229        C  0.15136830  0.79546496  0.85220605    -0.05890
C230        C  0.17971270  0.81528486  0.90400714    -0.17020
C231        C  0.20294782  0.77268275  0.94486539     0.11310
C232        C  0.19878778  0.70769428  0.93432228    -0.05820
C233        C  0.17026015  0.68717515  0.88298036    -0.17050
C234        C  0.14657810  0.73016478  0.84191217     0.11340
S235        S  0.23619351  0.80458440  0.01059649    -0.32020
S236        S  0.11229304  0.69869711  0.77681140    -0.32020
H237        H  0.08317621  0.72647514  0.77800356     0.29350
H238        H  0.22710045  0.76301356  0.03916587     0.29340
H239        H  0.18377639  0.86481778  0.91328939     0.19940
H240        H  0.16665510  0.63741186  0.87460361     0.19940
C241        C  0.18452518  0.92864631  0.70206042    -0.05890
C242        C  0.18550499  0.96974579  0.66495562    -0.17020
C243        C  0.20756753  0.95669971  0.64434732     0.11310
C244        C  0.22724348  0.89987511  0.65839478    -0.05820
C245        C  0.22810505  0.86060180  0.69799566    -0.17050
C246        C  0.20726341  0.87466872  0.72035928     0.11340
S247        S  0.20990353  0.01383739  0.60060261    -0.32020
S248        S  0.20924075  0.82008138  0.76970631    -0.32020
H249        H  0.20162093  0.86470732  0.79786774     0.29350
H250        H  0.24468350  0.99577127  0.61211751     0.29340
H251        H  0.16753300  0.01021379  0.64955327     0.19940
H252        H  0.24348018  0.81691491  0.70934601     0.19940
O253        O  0.43294224  0.83610789  0.76605818    -0.57580
C254        C  0.37597275  0.95515609  0.61660454     0.75050
O255        O  0.43160322  0.04482268  0.77456728    -0.58740
C256        C  0.46354083  0.84516287  0.81035622     0.75020
C257        C  0.48882285  0.93666064  0.71350818     0.77410
Cd258      Cd  0.43010343  0.94417443  0.73110599     1.37470
O259        O  0.37589953  0.90747028  0.64308738    -0.57580
O260        O  0.46772743  0.89154125  0.70562994    -0.56390
C261        C  0.40734874  0.02940438  0.78444433     0.77370
O262        O  0.48309355  0.98782876  0.73018928    -0.58760
O263        O  0.39841660  0.99786116  0.64458001    -0.57210
O264        O  0.47625524  0.90019475  0.81772005    -0.57200
O265        O  0.39374853  0.97522275  0.76951315    -0.56370
O266        O  0.63568050  0.72797928  0.64911068    -0.57580
C267        C  0.63989953  0.88392808  0.54373523     0.75050
O268        O  0.54055376  0.77559405  0.48271242    -0.58740
C269        C  0.60661958  0.70311522  0.64193339     0.75020
C270        C  0.57523305  0.87473232  0.62682800     0.77410
Cd271      Cd  0.59834573  0.80176139  0.56931465     1.37470
O272        O  0.65495351  0.83436801  0.57182270    -0.57580
O273        O  0.60705124  0.85086188  0.65060001    -0.56390
C274        C  0.55369818  0.72651840  0.47472559     0.77370
O275        O  0.55544270  0.87106613  0.57507379    -0.58760
O276        O  0.60718404  0.89465669  0.52977252    -0.57210
O277        O  0.57671271  0.72162048  0.60049523    -0.57200
O278        O  0.58788925  0.71738420  0.50648267    -0.56370
O279        O  0.63699722  0.97593457  0.43441919    -0.57580
C280        C  0.54417590  0.03358103  0.26476436     0.75050
O281        O  0.57250347  0.84402223  0.29953906    -0.58740
C282        C  0.63573482  0.92982857  0.46148458     0.75020
C283        C  0.52970665  0.95776835  0.37748629     0.77410
Cd284      Cd  0.58158468  0.94067389  0.34786938     1.37460
O285        O  0.57667163  0.04394975  0.30476340    -0.57580
O286        O  0.55065626  0.99987854  0.37867693    -0.56390
C287        C  0.59784505  0.85263793  0.29042766     0.77370
O288        O  0.53135820  0.90434446  0.35944940    -0.58760
O289        O  0.53117347  0.97994035  0.26318369    -0.57210
O290        O  0.61288263  0.88729986  0.43401238    -0.57200
O291        O  0.61731746  0.90117322  0.31083222    -0.56370
O292        O  0.35313848  0.05586480  0.50787573    -0.57580
C293        C  0.39526935  0.19708996  0.43519209     0.75050
O294        O  0.46584807  0.12367563  0.59575038    -0.58740
C295        C  0.36945034  0.00608520  0.53442536     0.75020
C296        C  0.44491389  0.02935847  0.46847610     0.77410
Cd297      Cd  0.40859527  0.09585540  0.51013855     1.37470
O298        O  0.37068101  0.15549139  0.42001242    -0.57580
O299        O  0.41058512  0.03764021  0.43893078    -0.56390
C300        C  0.45160862  0.16669172  0.60860005     0.77370
O301        O  0.46079020  0.04457380  0.51819541    -0.58760
O302        O  0.42101584  0.19507738  0.48473195    -0.57210
O303        O  0.40209102  0.99848352  0.54714454    -0.57200
O304        O  0.41699105  0.17251185  0.57853759    -0.56370
C305        C  0.35370121  0.96124795  0.55576398     0.00800
C306        C  0.65718074  0.92535089  0.52242152     0.00800
O307        O  0.63328390  0.40807623  0.93543282    -0.57580
C308        C  0.54031125  0.35719153  0.76696806     0.75050
O309        O  0.52873120  0.49533570  0.85848195    -0.58740
C310        C  0.63462729  0.45544097  0.96286680     0.75020
C311        C  0.59318714  0.53627932  0.78880257     0.77410
Cd312      Cd  0.57819089  0.44946746  0.84964952     1.37460
O313        O  0.57296342  0.34602320  0.80673872    -0.57580
O314        O  0.61184409  0.48614538  0.80792261    -0.56390
C315        C  0.52198790  0.44279640  0.87211938     0.77370
O316        O  0.57009438  0.54785495  0.80190414    -0.58760
O317        O  0.52759632  0.41097596  0.76577045    -0.57210
O318        O  0.61266765  0.49997665  0.93603188    -0.57200
O319        O  0.54150379  0.39630459  0.87601570    -0.56370
O320        O  0.36248438  0.23722790  0.91021502    -0.57580
C321        C  0.36975093  0.37873892  0.03269190     0.75050
O322        O  0.46232778  0.24246436  0.07114046    -0.58740
C323        C  0.38559072  0.19373622  0.92032298     0.75020
C324        C  0.43436986  0.36714903  0.95299208     0.77410
Cd325      Cd  0.40490978  0.28988908  0.99974315     1.37470
O326        O  0.35234864  0.33059120  0.00547999    -0.57580
O327        O  0.40191929  0.34698572  0.92542584    -0.56390
C328        C  0.44909108  0.21124636  0.09380907     0.77370
O329        O  0.45286822  0.35497148  0.00381786    -0.58760
O330        O  0.40188883  0.38490468  0.04298385    -0.57210
O331        O  0.41420529  0.19228906  0.96752124    -0.57200
O332        O  0.41503303  0.21826499  0.07365044    -0.56370
O333        O  0.43334119  0.55125261  0.26537383    -0.57580
C334        C  0.37938838  0.43090914  0.11668282     0.75050
O335        O  0.48722612  0.39807641  0.23390497    -0.58740
C336        C  0.46447504  0.54294066  0.30930007     0.75020
C337        C  0.41515094  0.35787826  0.29107826     0.77410
Cd338      Cd  0.43343380  0.44317106  0.23192833     1.37460
O339        O  0.37857172  0.47781413  0.14284887    -0.57580
O340        O  0.39567221  0.40620507  0.26753466    -0.56390
C341        C  0.49442011  0.44933973  0.21902643     0.77370
O342        O  0.44099087  0.34697014  0.28357324    -0.58760
O343        O  0.40345669  0.38957828  0.14492316    -0.57210
O344        O  0.47835263  0.48860336  0.31700686    -0.57200
O345        O  0.47403673  0.49595539  0.21151366    -0.56370
O346        O  0.63659426  0.66268144  0.14934596    -0.57580
C347        C  0.64188866  0.50212232  0.04610659     0.75050
O348        O  0.56120077  0.51821365  0.08362995    -0.58740
C349        C  0.60655017  0.68486635  0.14129007     0.75020
C350        C  0.55639639  0.66152677  0.97711656     0.77410
Cd351      Cd  0.60188822  0.58626985  0.07277965     1.37470
O352        O  0.65743393  0.55155368  0.07296587    -0.57580
O353        O  0.59050242  0.67103152  0.00848748    -0.56390
C354        C  0.58216725  0.51374136  0.13526435     0.77370
O355        O  0.54391974  0.61237931  0.98618917    -0.58760
O356        O  0.60944624  0.49273393  0.03379477    -0.57210
O357        O  0.57752829  0.66444370  0.10036649    -0.57200
O358        O  0.61401689  0.53618667  0.15676068    -0.56370
C359        C  0.65796800  0.45962560  0.02367804     0.00800
C360        C  0.35542320  0.42403340  0.05594067     0.00800
C361        C  0.52376371  0.45552293  0.20791985    -0.05890
C362        C  0.54713186  0.50717215  0.22915256    -0.17020
C363        C  0.57042094  0.52244331  0.21116220     0.11310
C364        C  0.56866395  0.48769249  0.16840517    -0.05820
C365        C  0.54723956  0.43362428  0.15005476    -0.17050
C366        C  0.52534374  0.41684926  0.17008634     0.11340
S367        S  0.59889914  0.59028330  0.24056244    -0.32020
S368        S  0.49763832  0.34870684  0.14235684    -0.32020
H369        H  0.46541626  0.37694125  0.13310044     0.29350
H370        H  0.63091776  0.55912610  0.25160210     0.29340
H371        H  0.54642958  0.53689702  0.25875537     0.19940
H372        H  0.54590650  0.40635118  0.11763865     0.19940
C373        C  0.49307754  0.43422346  0.88350706    -0.05890
C374        C  0.49443107  0.46854362  0.92563152    -0.17020
C375        C  0.47333574  0.45080917  0.94697965     0.11310
C376        C  0.45077928  0.39764405  0.92582476    -0.05820
C377        C  0.44719330  0.36682497  0.88075988    -0.17050
C378        C  0.46810748  0.38437110  0.85951760     0.11340
S379        S  0.47661210  0.49671307  0.00137566    -0.32020
S380        S  0.46316332  0.33907820  0.80367293    -0.32020
H381        H  0.47093099  0.38926985  0.77997613     0.29350
H382        H  0.44149912  0.48233507  0.99006147     0.29340
H383        H  0.51350073  0.50679000  0.94402604     0.19940
H384        H  0.42960617  0.32626364  0.86400914     0.19940
C385        C  0.40927487  0.31788172  0.32769195    -0.05890
C386        C  0.37352604  0.30573478  0.31506727    -0.17020
C387        C  0.36740621  0.26812637  0.34956256     0.11310
C388        C  0.39763553  0.24193612  0.39771418    -0.05820
C389        C  0.43312985  0.25623649  0.41069034    -0.17050
C390        C  0.43928617  0.29333237  0.37679592     0.11340
S391        S  0.32088780  0.25800424  0.33140099    -0.32020
S392        S  0.48642868  0.30936457  0.40023429    -0.32020
H393        H  0.48043198  0.37362731  0.38673671     0.29350
H394        H  0.32939221  0.25639279  0.38548047     0.29340
H395        H  0.35025147  0.32563545  0.27817679     0.19940
H396        H  0.45679768  0.23827422  0.44801679     0.19940
C397        C  0.47414103  0.21202054  0.65286877    -0.05890
C398        C  0.45945297  0.27220309  0.64784916    -0.17020
C399        C  0.48054990  0.32089537  0.68230812     0.11310
C400        C  0.51746695  0.30933574  0.72528724    -0.05820
C401        C  0.53197572  0.24875564  0.73090381    -0.17050
C402        C  0.51090343  0.20038917  0.69558187     0.11340
S403        S  0.45840755  0.39668242  0.66687074    -0.32020
S404        S  0.53215803  0.12440565  0.70924855    -0.32020
H405        H  0.50089469  0.09424452  0.70150606     0.29350
H406        H  0.48635865  0.42652224  0.66412033     0.29340
H407        H  0.43159883  0.28258295  0.61480057     0.19940
H408        H  0.55986007  0.23839866  0.76380047     0.19940
C409        C  0.60441277  0.73005280  0.17834055    -0.05890
C410        C  0.63656743  0.75788405  0.22073300    -0.17020
C411        C  0.63586228  0.79737292  0.25877685     0.11310
C412        C  0.60218884  0.80985003  0.25433378    -0.05820
C413        C  0.57020941  0.78291834  0.21168523    -0.17050
C414        C  0.57069415  0.74358148  0.17406163     0.11340
S415        S  0.67890119  0.82814044  0.31288566    -0.32020
S416        S  0.52673348  0.71234322  0.12263943    -0.32020
H417        H  0.53769101  0.64954206  0.13801732     0.29350
H418        H  0.67074411  0.82123668  0.35350280     0.29340
H419        H  0.66257265  0.74795807  0.22497394     0.19940
H420        H  0.54412413  0.79291922  0.20724287     0.19940
C421        C  0.52098724  0.08124854  0.22246996    -0.05890
C422        C  0.48274779  0.07442271  0.19488000    -0.17020
C423        C  0.45861721  0.11718385  0.15478342     0.11310
C424        C  0.47267227  0.16832711  0.14050727    -0.05820
C425        C  0.51093979  0.17575609  0.16877077    -0.17050
C426        C  0.53509265  0.13302253  0.20916498     0.11340
S427        S  0.41041899  0.10147024  0.12187939    -0.32020
S428        S  0.58336981  0.14555446  0.23961177    -0.32020
H429        H  0.59108361  0.08260514  0.23492918     0.29350
H430        H  0.40317191  0.15880608  0.13818586     0.29340
H431        H  0.47130651  0.03540296  0.20485300     0.19940
H432        H  0.52236401  0.21422390  0.15825882     0.19940
C433        C  0.46614372  0.00912739  0.44525908    -0.05890
C434        C  0.45471497  0.95790754  0.40971266    -0.17020
C435        C  0.47417331  0.93978920  0.38568534     0.11310
C436        C  0.50636627  0.97240681  0.39904930    -0.05820
C437        C  0.51730216  0.02356290  0.43459203    -0.17050
C438        C  0.49706215  0.04352718  0.45599589     0.11340
S439        S  0.45545997  0.87759353  0.33657642    -0.32020
S440        S  0.51079401  0.11651891  0.49286156    -0.32020
H441        H  0.47521517  0.13652003  0.47539684     0.29350
H442        H  0.46155621  0.90823144  0.29908145     0.29340
H443        H  0.43018648  0.93275656  0.39984276     0.19940
H444        H  0.54152507  0.04999325  0.44487906     0.19940
C445        C  0.60540672  0.65764702  0.68004293    -0.05890
C446        C  0.57130185  0.65074761  0.67481673    -0.17020
C447        C  0.56665935  0.61100172  0.70877251     0.11310
C448        C  0.59710191  0.57810174  0.75137116    -0.05820
C449        C  0.63133856  0.58408866  0.75684566    -0.17050
C450        C  0.63575183  0.62294326  0.72140045     0.11340
S451        S  0.52049607  0.60219151  0.69312091    -0.32020
S452        S  0.68024134  0.62469923  0.73029048    -0.32020
H453        H  0.66643790  0.62058786  0.67409589     0.29350
H454        H  0.52282479  0.53645715  0.69886238     0.29340
H455        H  0.54743984  0.67632028  0.64338209     0.19940
H456        H  0.65476804  0.55808355  0.78874137     0.19940
C457        C  0.53019410  0.68022544  0.43248009    -0.05890
C458        C  0.50048687  0.70067952  0.38157099    -0.17020
C459        C  0.47831644  0.65779121  0.34024862     0.11310
C460        C  0.48506433  0.59252269  0.35050329    -0.05820
C461        C  0.51434574  0.57263928  0.40207377    -0.17050
C462        C  0.53660384  0.61512833  0.44277696     0.11340
S463        S  0.44340733  0.68965507  0.27495004    -0.32020
S464        S  0.57163656  0.58253447  0.50791172    -0.32020
H465        H  0.56345084  0.62270864  0.53821050     0.29350
H466        H  0.45428049  0.65330368  0.24562488     0.29340
H467        H  0.49531615  0.75042425  0.37327607     0.19940
H468        H  0.51995807  0.52306593  0.41134040     0.19940
C469        C  0.39617415  0.07131302  0.81363093    -0.05890
C470        C  0.39494160  0.04616715  0.85746093    -0.17020
C471        C  0.38848803  0.08442485  0.89058043     0.11310
C472        C  0.38202600  0.14928590  0.87900475    -0.05820
C473        C  0.38125462  0.17391219  0.83339580    -0.17050
C474        C  0.38845770  0.13583706  0.80086860     0.11450
S475        S  0.39075318  0.04834595  0.94876369    -0.32020
S476        S  0.38825181  0.17268110  0.74460053    -0.32020
H477        H  0.37472005  0.12034469  0.71015185     0.29350
H478        H  0.36777899  0.09215986  0.95237819     0.29340
H479        H  0.40074797  0.99678170  0.86757884     0.19940
H480        H  0.37726210  0.22386155  0.82501290     0.19940
C481        C  0.48470164  0.79546496  0.85220605    -0.05890
C482        C  0.51304603  0.81528486  0.90400714    -0.17020
C483        C  0.53628116  0.77268275  0.94486539     0.11310
C484        C  0.53212111  0.70769428  0.93432228    -0.05820
C485        C  0.50359349  0.68717515  0.88298036    -0.17050
C486        C  0.47991144  0.73016478  0.84191217     0.11340
S487        S  0.56952685  0.80458440  0.01059649    -0.32020
S488        S  0.44562637  0.69869711  0.77681139    -0.32020
H489        H  0.41650954  0.72647514  0.77800356     0.29350
H490        H  0.56043378  0.76301356  0.03916587     0.29340
H491        H  0.51710972  0.86481779  0.91328939     0.19940
H492        H  0.49998844  0.63741186  0.87460360     0.19940
C493        C  0.51785851  0.92864632  0.70206042    -0.05890
C494        C  0.51883833  0.96974579  0.66495562    -0.17020
C495        C  0.54090086  0.95669971  0.64434732     0.11310
C496        C  0.56057682  0.89987511  0.65839478    -0.05820
C497        C  0.56143839  0.86060180  0.69799566    -0.17050
C498        C  0.54059675  0.87466872  0.72035928     0.11340
S499        S  0.54323686  0.01383739  0.60060260    -0.32020
S500        S  0.54257408  0.82008139  0.76970631    -0.32020
H501        H  0.53495427  0.86470733  0.79786774     0.29350
H502        H  0.57801684  0.99577127  0.61211751     0.29340
H503        H  0.50086633  0.01021379  0.64955327     0.19940
H504        H  0.57681351  0.81691491  0.70934601     0.19940
O505        O  0.76627557  0.83610788  0.76605818    -0.57580
C506        C  0.70930608  0.95515609  0.61660455     0.75050
O507        O  0.76493656  0.04482268  0.77456729    -0.58740
C508        C  0.79687416  0.84516287  0.81035623     0.75020
C509        C  0.82215619  0.93666064  0.71350819     0.77410
Cd510      Cd  0.76343676  0.94417443  0.73110599     1.37470
O511        O  0.70923287  0.90747028  0.64308739    -0.57580
O512        O  0.80106076  0.89154124  0.70562995    -0.56390
C513        C  0.74068207  0.02940437  0.78444434     0.77370
O514        O  0.81642689  0.98782875  0.73018929    -0.58760
O515        O  0.73174993  0.99786116  0.64458002    -0.57210
O516        O  0.80958857  0.90019475  0.81772006    -0.57200
O517        O  0.72708187  0.97522275  0.76951316    -0.56370
O518        O  0.96901384  0.72797928  0.64911068    -0.57580
C519        C  0.97323287  0.88392808  0.54373523     0.75050
O520        O  0.87388709  0.77559405  0.48271242    -0.58740
C521        C  0.93995291  0.70311522  0.64193339     0.75020
C522        C  0.90856639  0.87473232  0.62682800     0.77410
Cd523      Cd  0.93167906  0.80176139  0.56931465     1.37470
O524        O  0.98828685  0.83436801  0.57182270    -0.57580
O525        O  0.94038458  0.85086188  0.65060001    -0.56390
C526        C  0.88703151  0.72651840  0.47472559     0.77370
O527        O  0.88877604  0.87106613  0.57507380    -0.58760
O528        O  0.94051737  0.89465669  0.52977252    -0.57210
O529        O  0.91004605  0.72162048  0.60049523    -0.57200
O530        O  0.92122258  0.71738420  0.50648267    -0.56370
O531        O  0.97033055  0.97593457  0.43441919    -0.57580
C532        C  0.87750923  0.03358103  0.26476436     0.75050
O533        O  0.90583680  0.84402223  0.29953906    -0.58740
C534        C  0.96906816  0.92982857  0.46148458     0.75020
C535        C  0.86303998  0.95776835  0.37748629     0.77410
Cd536      Cd  0.91491801  0.94067389  0.34786938     1.37460
O537        O  0.91000496  0.04394975  0.30476340    -0.57580
O538        O  0.88398960  0.99987854  0.37867694    -0.56390
C539        C  0.93117838  0.85263793  0.29042766     0.77370
O540        O  0.86469153  0.90434446  0.35944940    -0.58760
O541        O  0.86450680  0.97994035  0.26318369    -0.57210
O542        O  0.94621596  0.88729986  0.43401238    -0.57200
O543        O  0.95065079  0.90117322  0.31083222    -0.56370
O544        O  0.68647181  0.05586480  0.50787573    -0.57580
C545        C  0.72860269  0.19708996  0.43519209     0.75050
O546        O  0.79918141  0.12367563  0.59575038    -0.58740
C547        C  0.70278367  0.00608520  0.53442536     0.75020
C548        C  0.77824722  0.02935847  0.46847611     0.77410
Cd549      Cd  0.74192860  0.09585540  0.51013856     1.37470
O550        O  0.70401434  0.15549139  0.42001242    -0.57580
O551        O  0.74391846  0.03764021  0.43893078    -0.56390
C552        C  0.78494196  0.16669172  0.60860006     0.77370
O553        O  0.79412353  0.04457379  0.51819542    -0.58760
O554        O  0.75434917  0.19507738  0.48473195    -0.57210
O555        O  0.73542436  0.99848352  0.54714454    -0.57200
O556        O  0.75032439  0.17251186  0.57853760    -0.56370
C557        C  0.68703454  0.96124795  0.55576398     0.00800
C558        C  0.99051407  0.92535089  0.52242152     0.00800
O559        O  0.96661723  0.40807623  0.93543282    -0.57580
C560        C  0.87364459  0.35719154  0.76696806     0.75050
O561        O  0.86206453  0.49533570  0.85848195    -0.58740
C562        C  0.96796062  0.45544097  0.96286680     0.75020
C563        C  0.92652047  0.53627932  0.78880258     0.77410
Cd564      Cd  0.91152423  0.44946746  0.84964952     1.37460
O565        O  0.90629675  0.34602320  0.80673872    -0.57580
O566        O  0.94517743  0.48614538  0.80792261    -0.56390
C567        C  0.85532124  0.44279640  0.87211938     0.77370
O568        O  0.90342772  0.54785495  0.80190414    -0.58760
O569        O  0.86092965  0.41097596  0.76577045    -0.57210
O570        O  0.94600099  0.49997665  0.93603188    -0.57200
O571        O  0.87483713  0.39630459  0.87601570    -0.56370
O572        O  0.69581771  0.23722790  0.91021502    -0.57580
C573        C  0.70308426  0.37873892  0.03269190     0.75050
O574        O  0.79566112  0.24246436  0.07114046    -0.58740
C575        C  0.71892405  0.19373622  0.92032298     0.75020
C576        C  0.76770319  0.36714903  0.95299208     0.77410
Cd577      Cd  0.73824311  0.28988908  0.99974315     1.37470
O578        O  0.68568197  0.33059120  0.00547999    -0.57580
O579        O  0.73525262  0.34698572  0.92542584    -0.56390
C580        C  0.78242441  0.21124636  0.09380907     0.77370
O581        O  0.78620155  0.35497148  0.00381787    -0.58760
O582        O  0.73522216  0.38490468  0.04298385    -0.57210
O583        O  0.74753862  0.19228906  0.96752124    -0.57200
O584        O  0.74836636  0.21826499  0.07365044    -0.56370
O585        O  0.76667452  0.55125261  0.26537383    -0.57580
C586        C  0.71272171  0.43090914  0.11668282     0.75050
O587        O  0.82055945  0.39807641  0.23390497    -0.58740
C588        C  0.79780837  0.54294066  0.30930007     0.75020
C589        C  0.74848427  0.35787826  0.29107825     0.77410
Cd590      Cd  0.76676713  0.44317106  0.23192833     1.37460
O591        O  0.71190505  0.47781413  0.14284887    -0.57580
O592        O  0.72900554  0.40620507  0.26753466    -0.56390
C593        C  0.82775344  0.44933973  0.21902643     0.77370
O594        O  0.77432420  0.34697014  0.28357324    -0.58760
O595        O  0.73679003  0.38957828  0.14492316    -0.57210
O596        O  0.81168596  0.48860336  0.31700686    -0.57200
O597        O  0.80737006  0.49595539  0.21151366    -0.56370
O598        O  0.96992759  0.66268144  0.14934596    -0.57580
C599        C  0.97522199  0.50212231  0.04610659     0.75050
O600        O  0.89453410  0.51821365  0.08362995    -0.58740
C601        C  0.93988350  0.68486635  0.14129008     0.75020
C602        C  0.88972972  0.66152676  0.97711656     0.77410
Cd603      Cd  0.93522155  0.58626985  0.07277965     1.37470
O604        O  0.99076726  0.55155368  0.07296588    -0.57580
O605        O  0.92383576  0.67103152  0.00848749    -0.56390
C606        C  0.91550059  0.51374136  0.13526435     0.77370
O607        O  0.87725307  0.61237931  0.98618917    -0.58760
O608        O  0.94277957  0.49273393  0.03379478    -0.57210
O609        O  0.91086162  0.66444370  0.10036649    -0.57200
O610        O  0.94735022  0.53618667  0.15676068    -0.56370
C611        C  0.99130133  0.45962560  0.02367804     0.00800
C612        C  0.68875653  0.42403340  0.05594067     0.00800
C613        C  0.85709705  0.45552293  0.20791985    -0.05890
C614        C  0.88046519  0.50717215  0.22915256    -0.17020
C615        C  0.90375427  0.52244331  0.21116220     0.11310
C616        C  0.90199728  0.48769248  0.16840517    -0.05820
C617        C  0.88057289  0.43362428  0.15005476    -0.17050
C618        C  0.85867707  0.41684926  0.17008634     0.11340
S619        S  0.93223247  0.59028329  0.24056244    -0.32020
S620        S  0.83097165  0.34870684  0.14235684    -0.32020
H621        H  0.79874959  0.37694125  0.13310045     0.29350
H622        H  0.96425109  0.55912609  0.25160211     0.29340
H623        H  0.87976292  0.53689702  0.25875537     0.19940
H624        H  0.87923983  0.40635118  0.11763865     0.19940
C625        C  0.82641087  0.43422346  0.88350706    -0.05890
C626        C  0.82776441  0.46854362  0.92563152    -0.17020
C627        C  0.80666908  0.45080917  0.94697965     0.11310
C628        C  0.78411261  0.39764405  0.92582476    -0.05820
C629        C  0.78052663  0.36682496  0.88075988    -0.17050
C630        C  0.80144081  0.38437110  0.85951760     0.11340
S631        S  0.80994543  0.49671308  0.00137566    -0.32020
S632        S  0.79649665  0.33907820  0.80367293    -0.32020
H633        H  0.80426433  0.38926984  0.77997613     0.29350
H634        H  0.77483245  0.48233507  0.99006147     0.29340
H635        H  0.84683406  0.50679000  0.94402604     0.19940
H636        H  0.76293951  0.32626364  0.86400915     0.19940
C637        C  0.74260820  0.31788172  0.32769195    -0.05890
C638        C  0.70685937  0.30573479  0.31506727    -0.17020
C639        C  0.70073954  0.26812638  0.34956256     0.11310
C640        C  0.73096886  0.24193612  0.39771418    -0.05820
C641        C  0.76646318  0.25623648  0.41069033    -0.17050
C642        C  0.77261950  0.29333236  0.37679591     0.11340
S643        S  0.65422114  0.25800425  0.33140100    -0.32020
S644        S  0.81976201  0.30936455  0.40023428    -0.32020
H645        H  0.81376531  0.37362729  0.38673670     0.29350
H646        H  0.66272554  0.25639280  0.38548048     0.29340
H647        H  0.68358480  0.32563546  0.27817680     0.19940
H648        H  0.79013101  0.23827420  0.44801678     0.19940
C649        C  0.80747436  0.21202054  0.65286877    -0.05890
C650        C  0.79278630  0.27220309  0.64784916    -0.17020
C651        C  0.81388323  0.32089537  0.68230812     0.11310
C652        C  0.85080029  0.30933575  0.72528724    -0.05820
C653        C  0.86530905  0.24875564  0.73090381    -0.17050
C654        C  0.84423676  0.20038917  0.69558187     0.11340
S655        S  0.79174088  0.39668242  0.66687075    -0.32020
S656        S  0.86549137  0.12440566  0.70924856    -0.32020
H657        H  0.83422802  0.09424452  0.70150606     0.29350
H658        H  0.81969198  0.42652224  0.66412033     0.29340
H659        H  0.76493216  0.28258296  0.61480058     0.19940
H660        H  0.89319340  0.23839866  0.76380047     0.19940
C661        C  0.93774610  0.73005279  0.17834055    -0.05890
C662        C  0.96990076  0.75788404  0.22073300    -0.17020
C663        C  0.96919561  0.79737291  0.25877685     0.11310
C664        C  0.93552217  0.80985003  0.25433378    -0.05820
C665        C  0.90354274  0.78291834  0.21168523    -0.17050
C666        C  0.90402748  0.74358147  0.17406163     0.11340
S667        S  0.01223452  0.82814044  0.31288565    -0.32020
S668        S  0.86006681  0.71234321  0.12263943    -0.32020
H669        H  0.87102434  0.64954206  0.13801733     0.29350
H670        H  0.00407745  0.82123669  0.35350280     0.29340
H671        H  0.99590598  0.74795807  0.22497394     0.19940
H672        H  0.87745746  0.79291921  0.20724287     0.19940
C673        C  0.85432057  0.08124854  0.22246996    -0.05890
C674        C  0.81608112  0.07442271  0.19488000    -0.17020
C675        C  0.79195054  0.11718385  0.15478342     0.11310
C676        C  0.80600560  0.16832711  0.14050727    -0.05820
C677        C  0.84427313  0.17575609  0.16877077    -0.17050
C678        C  0.86842598  0.13302252  0.20916498     0.11340
S679        S  0.74375232  0.10147024  0.12187940    -0.32020
S680        S  0.91670314  0.14555445  0.23961177    -0.32020
H681        H  0.92441694  0.08260513  0.23492917     0.29350
H682        H  0.73650524  0.15880609  0.13818587     0.29340
H683        H  0.80463985  0.03540297  0.20485300     0.19940
H684        H  0.85569734  0.21422390  0.15825881     0.19940
C685        C  0.79947705  0.00912739  0.44525908    -0.05890
C686        C  0.78804830  0.95790754  0.40971266    -0.17020
C687        C  0.80750664  0.93978921  0.38568534     0.11310
C688        C  0.83969960  0.97240681  0.39904930    -0.05820
C689        C  0.85063549  0.02356290  0.43459204    -0.17050
C690        C  0.83039548  0.04352717  0.45599590     0.11340
S691        S  0.78879330  0.87759353  0.33657642    -0.32020
S692        S  0.84412734  0.11651890  0.49286157    -0.32020
H693        H  0.80854850  0.13652002  0.47539686     0.29350
H694        H  0.79488954  0.90823144  0.29908145     0.29340
H695        H  0.76351981  0.93275657  0.39984276     0.19940
H696        H  0.87485840  0.04999325  0.44487906     0.19940
C697        C  0.93874005  0.65764702  0.68004294    -0.05890
C698        C  0.90463518  0.65074761  0.67481673    -0.17020
C699        C  0.89999269  0.61100172  0.70877251     0.11310
C700        C  0.93043525  0.57810174  0.75137116    -0.05820
C701        C  0.96467189  0.58408866  0.75684566    -0.17050
C702        C  0.96908516  0.62294326  0.72140045     0.11340
S703        S  0.85382940  0.60219151  0.69312091    -0.32020
S704        S  0.01357468  0.62469923  0.73029048    -0.32020
H705        H  0.99977124  0.62058786  0.67409589     0.29350
H706        H  0.85615813  0.53645715  0.69886239     0.29340
H707        H  0.88077318  0.67632028  0.64338209     0.19940
H708        H  0.98810137  0.55808355  0.78874137     0.19940
C709        C  0.86352743  0.68022544  0.43248009    -0.05890
C710        C  0.83382020  0.70067952  0.38157099    -0.17020
C711        C  0.81164977  0.65779122  0.34024862     0.11310
C712        C  0.81839766  0.59252269  0.35050329    -0.05820
C713        C  0.84767907  0.57263928  0.40207377    -0.17050
C714        C  0.86993717  0.61512833  0.44277696     0.11340
S715        S  0.77674066  0.68965507  0.27495004    -0.32020
S716        S  0.90496989  0.58253447  0.50791172    -0.32020
H717        H  0.89678417  0.62270864  0.53821050     0.29350
H718        H  0.78761382  0.65330368  0.24562488     0.29340
H719        H  0.82864948  0.75042425  0.37327607     0.19940
H720        H  0.85329140  0.52306593  0.41134040     0.19940
C721        C  0.72950748  0.07131302  0.81363094    -0.05890
C722        C  0.72827493  0.04616715  0.85746094    -0.17020
C723        C  0.72182136  0.08442485  0.89058043     0.11310
C724        C  0.71535934  0.14928590  0.87900475    -0.05820
C725        C  0.71458795  0.17391219  0.83339580    -0.17050
C726        C  0.72179103  0.13583706  0.80086860     0.11450
S727        S  0.72408652  0.04834595  0.94876369    -0.32020
S728        S  0.72158514  0.17268110  0.74460053    -0.32020
H729        H  0.70805338  0.12034468  0.71015185     0.29350
H730        H  0.70111232  0.09215986  0.95237820     0.29340
H731        H  0.73408131  0.99678170  0.86757885     0.19940
H732        H  0.71059543  0.22386154  0.82501290     0.19940
C733        C  0.81803497  0.79546496  0.85220605    -0.05890
C734        C  0.84637936  0.81528485  0.90400714    -0.17020
C735        C  0.86961449  0.77268275  0.94486539     0.11310
C736        C  0.86545444  0.70769427  0.93432228    -0.05820
C737        C  0.83692682  0.68717515  0.88298036    -0.17050
C738        C  0.81324477  0.73016477  0.84191217     0.11340
S739        S  0.90286018  0.80458439  0.01059649    -0.32020
S740        S  0.77895970  0.69869711  0.77681140    -0.32020
H741        H  0.74984288  0.72647514  0.77800356     0.29350
H742        H  0.89376712  0.76301356  0.03916588     0.29340
H743        H  0.85044305  0.86481778  0.91328939     0.19940
H744        H  0.83332177  0.63741186  0.87460361     0.19940
C745        C  0.85119184  0.92864631  0.70206042    -0.05890
C746        C  0.85217166  0.96974579  0.66495562    -0.17020
C747        C  0.87423419  0.95669971  0.64434732     0.11310
C748        C  0.89391015  0.89987511  0.65839478    -0.05820
C749        C  0.89477172  0.86060180  0.69799566    -0.17050
C750        C  0.87393008  0.87466872  0.72035928     0.11340
S751        S  0.87657019  0.01383739  0.60060261    -0.32020
S752        S  0.87590741  0.82008138  0.76970631    -0.32020
H753        H  0.86828760  0.86470732  0.79786774     0.29350
H754        H  0.91135017  0.99577127  0.61211751     0.29340
H755        H  0.83419966  0.01021379  0.64955328     0.19940
H756        H  0.91014684  0.81691490  0.70934601     0.19940
loop_ 
_geom_bond_atom_site_label_1 
_geom_bond_atom_site_label_2 
_geom_bond_distance 
_geom_bond_site_symmetry_2 
_ccdc_geom_bond_type 
O1            C4   1.273       .  A
O1           Cd6   2.488       .  S
C2           O11   1.265       .  A
C2            O7   1.272       .  A
C2           C53   1.494       .  S
O3            C9   1.271       .  A
O3           Cd6   2.480   1_545  S
C4           O12   1.268       .  A
C4          C229   1.490       .  S
C5           O10   1.273       .  A
C5            O8   1.263       .  A
C5          C241   1.471       .  S
Cd6          O13   2.457       .  S
Cd6          O12   2.399       .  S
Cd6          O11   2.398       .  S
Cd6           O7   2.499       .  S
Cd6          O10   2.490       .  S
Cd6           O8   2.397       .  S
C9           O13   1.268   1_545  A
C9          C217   1.482       .  S
O14          C17   1.277       .  A
O14         Cd19   2.524       .  S
C15          O24   1.265       .  A
C15          O20   1.273       .  A
C15          C54   1.488       .  S
O16          C22   1.270       .  A
O16         Cd19   2.482       .  S
C17          O25   1.263       .  A
C17         C193   1.488       .  S
C18          O23   1.271       .  A
C18          O21   1.265       .  A
C18         C244   1.468       .  S
Cd19         O26   2.435       .  S
Cd19         O25   2.348       .  S
Cd19         O24   2.416       .  S
Cd19         O20   2.511       .  S
Cd19         O23   2.444       .  S
Cd19         O21   2.425       .  S
C22          O26   1.268       .  A
C22         C205   1.482       .  S
O27          C30   1.274       .  A
O27         Cd32   2.489       .  S
C28          O37   1.267   1_545  A
C28          O33   1.275       .  A
C28         C169   1.484       .  S
O29          C35   1.272       .  A
O29         Cd32   2.413       .  S
C30          O38   1.267       .  A
C30          C54   1.494       .  S
C31          O36   1.274       .  A
C31          O34   1.265       .  A
C31         C184   1.479       .  S
Cd32         O39   2.457       .  S
Cd32         O38   2.387       .  S
Cd32         O37   2.389       .  S
Cd32         O33   2.477   1_565  S
Cd32         O36   2.495       .  S
Cd32         O34   2.338       .  S
C35          O39   1.269       .  A
C35         C160   1.479       .  S
O40          C43   1.273       .  A
O40         Cd45   2.516       .  S
C41          O50   1.261       .  A
C41          O46   1.273       .  A
C41         C136   1.488       .  S
O42          C48   1.268       .  A
O42         Cd45   2.466       .  S
C43          O51   1.263   1_545  A
C43          C53   1.487   1_545  S
C44          O49   1.266       .  A
C44          O47   1.265       .  A
C44         C181   1.466       .  S
Cd45         O52   2.453       .  S
Cd45         O51   2.418   1_545  S
Cd45         O50   2.392       .  S
Cd45         O46   2.547       .  S
Cd45         O49   2.400       .  S
Cd45         O47   2.458       .  S
C48          O52   1.271       .  A
C48         C145   1.488       .  S
C53         C558   1.366   1_455  D
C54         C305   1.366       .  D
O55          C58   1.272       .  A
O55         Cd60   2.499       .  S
C56          O65   1.263       .  A
C56          O61   1.276       .  A
C56         C148   1.490       .  S
O57          C63   1.272       .  A
O57         Cd60   2.485       .  S
C58          O66   1.265       .  A
C58         C107   1.494   1_556  S
C59          O64   1.269       .  A
C59          O62   1.268       .  A
C59         C196   1.480       .  S
Cd60         O67   2.386       .  S
Cd60         O66   2.388       .  S
Cd60         O65   2.389       .  S
Cd60         O61   2.491       .  S
Cd60         O64   2.425       .  S
Cd60         O62   2.466       .  S
C63          O67   1.264       .  A
C63         C121   1.466       .  S
O68          C71   1.273       .  A
O68         Cd73   2.513       .  S
C69          O78   1.263       .  A
C69          O74   1.274       .  A
C69         C108   1.492       .  S
O70          C76   1.267       .  A
O70         Cd73   2.433   1_554  S
C71          O79   1.260       .  A
C71         C220   1.475       .  S
C72          O77   1.269   1_556  A
C72          O75   1.264       .  A
C72         C124   1.465       .  S
Cd73         O80   2.464   1_556  S
Cd73         O79   2.406       .  S
Cd73         O78   2.430   1_556  S
Cd73         O74   2.519   1_556  S
Cd73         O77   2.450   1_556  S
Cd73         O75   2.411       .  S
C76          O80   1.268       .  A
C76         C172   1.486       .  S
O81          C84   1.274       .  A
O81         Cd86   2.508       .  S
C82          O91   1.265       .  A
C82          O87   1.271       .  A
C82         C108   1.499       .  S
O83          C89   1.272       .  A
O83         Cd86   2.486       .  S
C84          O92   1.265       .  A
C84         C208   1.490       .  S
C85          O90   1.269       .  A
C85          O88   1.267       .  A
C85         C133   1.483       .  S
Cd86         O93   2.413       .  S
Cd86         O92   2.388       .  S
Cd86         O91   2.428       .  S
Cd86         O87   2.498       .  S
Cd86         O90   2.448       .  S
Cd86         O88   2.483       .  S
C89          O93   1.264       .  A
C89         C109   1.474       .  S
O94          C97   1.279       .  A
O94         Cd99   2.516       .  S
C95         O104   1.266       .  A
C95         O100   1.274       .  A
C95         C107   1.489       .  S
O96         C102   1.271       .  A
O96         Cd99   2.431       .  S
C97         O105   1.260       .  A
C97         C157   1.487       .  S
C98         O103   1.270       .  A
C98         O101   1.269   1_556  A
C98         C232   1.481       .  S
Cd99        O106   2.438       .  S
Cd99        O105   2.332       .  S
Cd99        O104   2.406       .  S
Cd99        O100   2.509       .  S
Cd99        O103   2.474   1_554  S
Cd99        O101   2.440       .  S
C102        O106   1.266       .  A
C102        C112   1.474       .  S
C107        C360   1.368       .  D
C108        C611   1.368   1_455  D
C109        C110   1.401       .  A
C109        C114   1.408       .  A
C110        C111   1.399       .  A
C110        H119   1.084       .  S
C111        C112   1.416       .  A
C111        S115   1.800       .  S
C112        C113   1.399       .  A
C113        C114   1.398       .  A
C113        H120   1.084       .  S
C114        S116   1.786       .  S
S115        H118   1.406       .  S
S116        H117   1.403       .  S
C121        C122   1.403       .  A
C121        C126   1.411       .  A
C122        C123   1.402       .  A
C122        H131   1.081       .  S
C123        C124   1.410       .  A
C123        S127   1.803   1_556  S
C124        C125   1.400       .  A
C125        C126   1.391       .  A
C125        H132   1.085       .  S
C126        S128   1.804       .  S
S127        H130   1.406   1_554  S
S128        H129   1.404       .  S
C133        C134   1.410       .  A
C133        C138   1.411       .  A
C134        C135   1.411       .  A
C134        H143   1.084       .  S
C135        C136   1.414       .  A
C135        S139   1.800   1_455  S
C136        C137   1.406       .  A
C137        C138   1.392       .  A
C137        H144   1.082       .  S
C138        S140   1.805       .  S
S139        H142   1.407       .  S
S140        H141   1.407       .  S
C145        C146   1.402       .  A
C145        C150   1.416       .  A
C146        C147   1.397       .  A
C146        H155   1.084       .  S
C147        C148   1.422       .  A
C147        S151   1.803       .  S
C148        C149   1.404       .  A
C149        C150   1.401       .  A
C149        H156   1.084       .  S
C150        S152   1.794       .  S
S151        H154   1.408       .  S
S152        H153   1.405       .  S
C157        C158   1.407       .  A
C157        C162   1.424       .  A
C158        C159   1.406       .  A
C158        H167   1.084       .  S
C159        C160   1.416       .  A
C159        S163   1.802       .  S
C160        C161   1.397       .  A
C161        C162   1.390       .  A
C161        H168   1.085       .  S
C162        S164   1.806       .  S
S163        H166   1.407       .  S
S164        H165   1.407       .  S
C169        C170   1.407       .  A
C169        C174   1.412       .  A
C170        C171   1.397       .  A
C170        H179   1.084       .  S
C171        C172   1.414       .  A
C171        S175   1.801       .  S
C172        C173   1.409       .  A
C173        C174   1.401       .  A
C173        H180   1.082       .  S
C174        S176   1.800       .  S
S175        H178   1.408       .  S
S176        H177   1.407       .  S
C181        C182   1.404   1_545  A
C181        C186   1.409       .  A
C182        C183   1.405       .  A
C182        H191   1.084       .  S
C183        C184   1.416       .  A
C183        S187   1.800       .  S
C184        C185   1.404   1_565  A
C185        C186   1.385       .  A
C185        H192   1.084       .  S
C186        S188   1.807       .  S
S187        H190   1.407       .  S
S188        H189   1.401       .  S
C193        C194   1.408       .  A
C193        C198   1.415       .  A
C194        C195   1.390       .  A
C194        H203   1.084       .  S
C195        C196   1.411       .  A
C195        S199   1.805       .  S
C196        C197   1.408       .  A
C197        C198   1.408       .  A
C197        H204   1.084       .  S
C198        S200   1.800       .  S
S199        H202   1.408       .  S
S200        H201   1.407       .  S
C205        C206   1.405       .  A
C205        C210   1.413       .  A
C206        C207   1.407       .  A
C206        H215   1.082       .  S
C207        C208   1.418       .  A
C207        S211   1.799       .  S
C208        C209   1.406       .  A
C209        C210   1.394       .  A
C209        H216   1.083       .  S
C210        S212   1.804       .  S
S211        H214   1.408       .  S
S212        H213   1.405       .  S
C217        C218   1.404       .  A
C217        C222   1.414       .  A
C218        C219   1.401       .  A
C218        H227   1.083   1_545  S
C219        C220   1.413       .  A
C219        S223   1.805       .  S
C220        C221   1.404       .  A
C221        C222   1.404       .  A
C221        H228   1.084       .  S
C222        S224   1.803       .  S
S223        H226   1.407       .  S
S224        H225   1.407       .  S
C229        C230   1.405       .  A
C229        C234   1.419       .  A
C230        C231   1.394       .  A
C230        H239   1.083       .  S
C231        C232   1.413       .  A
C231        S235   1.802   1_556  S
C232        C233   1.405       .  A
C233        C234   1.407       .  A
C233        H240   1.083       .  S
C234        S236   1.799       .  S
S235        H238   1.404       .  S
S236        H237   1.407       .  S
C241        C242   1.402       .  A
C241        C246   1.414       .  A
C242        C243   1.399       .  A
C242        H251   1.080   1_565  S
C243        C244   1.405       .  A
C243        S247   1.796   1_565  S
C244        C245   1.402       .  A
C245        C246   1.397       .  A
C245        H252   1.084       .  S
C246        S248   1.805       .  S
S247        H250   1.407   1_545  S
S248        H249   1.407       .  S
O253        C256   1.273       .  A
O253       Cd258   2.488       .  S
C254        O263   1.265       .  A
C254        O259   1.272       .  A
C254        C305   1.494       .  S
O255        C261   1.271       .  A
O255       Cd258   2.480   1_545  S
C256        O264   1.268       .  A
C256        C481   1.490       .  S
C257        O262   1.273       .  A
C257        O260   1.263       .  A
C257        C493   1.471       .  S
Cd258       O265   2.457       .  S
Cd258       O264   2.399       .  S
Cd258       O263   2.398       .  S
Cd258       O259   2.499       .  S
Cd258       O262   2.490       .  S
Cd258       O260   2.397       .  S
C261        O265   1.268   1_545  A
C261        C469   1.482       .  S
O266        C269   1.277       .  A
O266       Cd271   2.524       .  S
C267        O276   1.265       .  A
C267        O272   1.273       .  A
C267        C306   1.488       .  S
O268        C274   1.270       .  A
O268       Cd271   2.482       .  S
C269        O277   1.263       .  A
C269        C445   1.488       .  S
C270        O275   1.271       .  A
C270        O273   1.265       .  A
C270        C496   1.468       .  S
Cd271       O278   2.435       .  S
Cd271       O277   2.348       .  S
Cd271       O276   2.416       .  S
Cd271       O272   2.511       .  S
Cd271       O275   2.444       .  S
Cd271       O273   2.425       .  S
C274        O278   1.268       .  A
C274        C457   1.482       .  S
O279        C282   1.274       .  A
O279       Cd284   2.489       .  S
C280        O289   1.267   1_545  A
C280        O285   1.275       .  A
C280        C421   1.484       .  S
O281        C287   1.272       .  A
O281       Cd284   2.413       .  S
C282        O290   1.267       .  A
C282        C306   1.494       .  S
C283        O288   1.274       .  A
C283        O286   1.265       .  A
C283        C436   1.479       .  S
Cd284       O291   2.457       .  S
Cd284       O290   2.387       .  S
Cd284       O289   2.389       .  S
Cd284       O285   2.477   1_565  S
Cd284       O288   2.495       .  S
Cd284       O286   2.338       .  S
C287        O291   1.269       .  A
C287        C412   1.479       .  S
O292        C295   1.273       .  A
O292       Cd297   2.516       .  S
C293        O302   1.261       .  A
C293        O298   1.273       .  A
C293        C388   1.488       .  S
O294        C300   1.268       .  A
O294       Cd297   2.466       .  S
C295        O303   1.263   1_545  A
C295        C305   1.487   1_545  S
C296        O301   1.266       .  A
C296        O299   1.265       .  A
C296        C433   1.466       .  S
Cd297       O304   2.453       .  S
Cd297       O303   2.418   1_545  S
Cd297       O302   2.392       .  S
Cd297       O298   2.547       .  S
Cd297       O301   2.400       .  S
Cd297       O299   2.458       .  S
C300        O304   1.271       .  A
C300        C397   1.488       .  S
C306        C557   1.366       .  D
O307        C310   1.272       .  A
O307       Cd312   2.499       .  S
C308        O317   1.263       .  A
C308        O313   1.276       .  A
C308        C400   1.490       .  S
O309        C315   1.272       .  A
O309       Cd312   2.485       .  S
C310        O318   1.265       .  A
C310        C359   1.494   1_556  S
C311        O316   1.269       .  A
C311        O314   1.268       .  A
C311        C448   1.480       .  S
Cd312       O319   2.386       .  S
Cd312       O318   2.388       .  S
Cd312       O317   2.389       .  S
Cd312       O313   2.491       .  S
Cd312       O316   2.425       .  S
Cd312       O314   2.466       .  S
C315        O319   1.264       .  A
C315        C373   1.466       .  S
O320        C323   1.273       .  A
O320       Cd325   2.513       .  S
C321        O330   1.263       .  A
C321        O326   1.274       .  A
C321        C360   1.492       .  S
O322        C328   1.267       .  A
O322       Cd325   2.433   1_554  S
C323        O331   1.260       .  A
C323        C472   1.475       .  S
C324        O329   1.269   1_556  A
C324        O327   1.264       .  A
C324        C376   1.465       .  S
Cd325       O332   2.464   1_556  S
Cd325       O331   2.406       .  S
Cd325       O330   2.430   1_556  S
Cd325       O326   2.519   1_556  S
Cd325       O329   2.450   1_556  S
Cd325       O327   2.411       .  S
C328        O332   1.268       .  A
C328        C424   1.486       .  S
O333        C336   1.274       .  A
O333       Cd338   2.508       .  S
C334        O343   1.265       .  A
C334        O339   1.271       .  A
C334        C360   1.499       .  S
O335        C341   1.272       .  A
O335       Cd338   2.486       .  S
C336        O344   1.265       .  A
C336        C460   1.490       .  S
C337        O342   1.269       .  A
C337        O340   1.267       .  A
C337        C385   1.483       .  S
Cd338       O345   2.413       .  S
Cd338       O344   2.388       .  S
Cd338       O343   2.428       .  S
Cd338       O339   2.498       .  S
Cd338       O342   2.448       .  S
Cd338       O340   2.483       .  S
C341        O345   1.264       .  A
C341        C361   1.474       .  S
O346        C349   1.279       .  A
O346       Cd351   2.516       .  S
C347        O356   1.266       .  A
C347        O352   1.274       .  A
C347        C359   1.489       .  S
O348        C354   1.271       .  A
O348       Cd351   2.431       .  S
C349        O357   1.260       .  A
C349        C409   1.487       .  S
C350        O355   1.270       .  A
C350        O353   1.269   1_556  A
C350        C484   1.481       .  S
Cd351       O358   2.438       .  S
Cd351       O357   2.332       .  S
Cd351       O356   2.406       .  S
Cd351       O352   2.509       .  S
Cd351       O355   2.474   1_554  S
Cd351       O353   2.440       .  S
C354        O358   1.266       .  A
C354        C364   1.474       .  S
C359        C612   1.368       .  D
C361        C362   1.401       .  A
C361        C366   1.408       .  A
C362        C363   1.399       .  A
C362        H371   1.084       .  S
C363        C364   1.416       .  A
C363        S367   1.800       .  S
C364        C365   1.399       .  A
C365        C366   1.398       .  A
C365        H372   1.084       .  S
C366        S368   1.786       .  S
S367        H370   1.406       .  S
S368        H369   1.403       .  S
C373        C374   1.403       .  A
C373        C378   1.411       .  A
C374        C375   1.402       .  A
C374        H383   1.081       .  S
C375        C376   1.410       .  A
C375        S379   1.803   1_556  S
C376        C377   1.400       .  A
C377        C378   1.391       .  A
C377        H384   1.085       .  S
C378        S380   1.804       .  S
S379        H382   1.406   1_554  S
S380        H381   1.404       .  S
C385        C386   1.410       .  A
C385        C390   1.411       .  A
C386        C387   1.411       .  A
C386        H395   1.084       .  S
C387        C388   1.414       .  A
C387        S391   1.800       .  S
C388        C389   1.406       .  A
C389        C390   1.392       .  A
C389        H396   1.082       .  S
C390        S392   1.805       .  S
S391        H394   1.407       .  S
S392        H393   1.407       .  S
C397        C398   1.402       .  A
C397        C402   1.416       .  A
C398        C399   1.397       .  A
C398        H407   1.084       .  S
C399        C400   1.422       .  A
C399        S403   1.803       .  S
C400        C401   1.404       .  A
C401        C402   1.401       .  A
C401        H408   1.084       .  S
C402        S404   1.794       .  S
S403        H406   1.408       .  S
S404        H405   1.405       .  S
C409        C410   1.407       .  A
C409        C414   1.424       .  A
C410        C411   1.406       .  A
C410        H419   1.084       .  S
C411        C412   1.416       .  A
C411        S415   1.802       .  S
C412        C413   1.397       .  A
C413        C414   1.390       .  A
C413        H420   1.085       .  S
C414        S416   1.806       .  S
S415        H418   1.407       .  S
S416        H417   1.407       .  S
C421        C422   1.407       .  A
C421        C426   1.412       .  A
C422        C423   1.397       .  A
C422        H431   1.084       .  S
C423        C424   1.414       .  A
C423        S427   1.801       .  S
C424        C425   1.409       .  A
C425        C426   1.401       .  A
C425        H432   1.082       .  S
C426        S428   1.800       .  S
S427        H430   1.408       .  S
S428        H429   1.407       .  S
C433        C434   1.404   1_545  A
C433        C438   1.409       .  A
C434        C435   1.405       .  A
C434        H443   1.084       .  S
C435        C436   1.416       .  A
C435        S439   1.800       .  S
C436        C437   1.404   1_565  A
C437        C438   1.385       .  A
C437        H444   1.084       .  S
C438        S440   1.807       .  S
S439        H442   1.407       .  S
S440        H441   1.401       .  S
C445        C446   1.408       .  A
C445        C450   1.415       .  A
C446        C447   1.390       .  A
C446        H455   1.084       .  S
C447        C448   1.411       .  A
C447        S451   1.805       .  S
C448        C449   1.408       .  A
C449        C450   1.408       .  A
C449        H456   1.084       .  S
C450        S452   1.800       .  S
S451        H454   1.408       .  S
S452        H453   1.407       .  S
C457        C458   1.405       .  A
C457        C462   1.413       .  A
C458        C459   1.407       .  A
C458        H467   1.082       .  S
C459        C460   1.418       .  A
C459        S463   1.799       .  S
C460        C461   1.406       .  A
C461        C462   1.394       .  A
C461        H468   1.083       .  S
C462        S464   1.804       .  S
S463        H466   1.408       .  S
S464        H465   1.405       .  S
C469        C470   1.404       .  A
C469        C474   1.414       .  A
C470        C471   1.401       .  A
C470        H479   1.083   1_545  S
C471        C472   1.413       .  A
C471        S475   1.805       .  S
C472        C473   1.404       .  A
C473        C474   1.404       .  A
C473        H480   1.084       .  S
C474        S476   1.803       .  S
S475        H478   1.407       .  S
S476        H477   1.407       .  S
C481        C482   1.405       .  A
C481        C486   1.419       .  A
C482        C483   1.394       .  A
C482        H491   1.083       .  S
C483        C484   1.413       .  A
C483        S487   1.802   1_556  S
C484        C485   1.405       .  A
C485        C486   1.407       .  A
C485        H492   1.083       .  S
C486        S488   1.799       .  S
S487        H490   1.404       .  S
S488        H489   1.407       .  S
C493        C494   1.402       .  A
C493        C498   1.414       .  A
C494        C495   1.399       .  A
C494        H503   1.080   1_565  S
C495        C496   1.405       .  A
C495        S499   1.796   1_565  S
C496        C497   1.402       .  A
C497        C498   1.397       .  A
C497        H504   1.084       .  S
C498        S500   1.805       .  S
S499        H502   1.407   1_545  S
S500        H501   1.407       .  S
O505        C508   1.273       .  A
O505       Cd510   2.488       .  S
C506        O515   1.265       .  A
C506        O511   1.272       .  A
C506        C557   1.494       .  S
O507        C513   1.271       .  A
O507       Cd510   2.480   1_545  S
C508        O516   1.268       .  A
C508        C733   1.490       .  S
C509        O514   1.273       .  A
C509        O512   1.263       .  A
C509        C745   1.471       .  S
Cd510       O517   2.457       .  S
Cd510       O516   2.399       .  S
Cd510       O515   2.398       .  S
Cd510       O511   2.499       .  S
Cd510       O514   2.490       .  S
Cd510       O512   2.397       .  S
C513        O517   1.268   1_545  A
C513        C721   1.482       .  S
O518        C521   1.277       .  A
O518       Cd523   2.524       .  S
C519        O528   1.265       .  A
C519        O524   1.273       .  A
C519        C558   1.488       .  S
O520        C526   1.270       .  A
O520       Cd523   2.482       .  S
C521        O529   1.263       .  A
C521        C697   1.488       .  S
C522        O527   1.271       .  A
C522        O525   1.265       .  A
C522        C748   1.468       .  S
Cd523       O530   2.435       .  S
Cd523       O529   2.348       .  S
Cd523       O528   2.416       .  S
Cd523       O524   2.511       .  S
Cd523       O527   2.444       .  S
Cd523       O525   2.425       .  S
C526        O530   1.268       .  A
C526        C709   1.482       .  S
O531        C534   1.274       .  A
O531       Cd536   2.489       .  S
C532        O541   1.267   1_545  A
C532        O537   1.275       .  A
C532        C673   1.484       .  S
O533        C539   1.272       .  A
O533       Cd536   2.413       .  S
C534        O542   1.267       .  A
C534        C558   1.494       .  S
C535        O540   1.274       .  A
C535        O538   1.265       .  A
C535        C688   1.479       .  S
Cd536       O543   2.457       .  S
Cd536       O542   2.387       .  S
Cd536       O541   2.389       .  S
Cd536       O537   2.477   1_565  S
Cd536       O540   2.495       .  S
Cd536       O538   2.338       .  S
C539        O543   1.269       .  A
C539        C664   1.479       .  S
O544        C547   1.273       .  A
O544       Cd549   2.516       .  S
C545        O554   1.261       .  A
C545        O550   1.273       .  A
C545        C640   1.488       .  S
O546        C552   1.268       .  A
O546       Cd549   2.466       .  S
C547        O555   1.263   1_545  A
C547        C557   1.487   1_545  S
C548        O553   1.266       .  A
C548        O551   1.265       .  A
C548        C685   1.466       .  S
Cd549       O556   2.453       .  S
Cd549       O555   2.418   1_545  S
Cd549       O554   2.392       .  S
Cd549       O550   2.547       .  S
Cd549       O553   2.400       .  S
Cd549       O551   2.458       .  S
C552        O556   1.271       .  A
C552        C649   1.488       .  S
O559        C562   1.272       .  A
O559       Cd564   2.499       .  S
C560        O569   1.263       .  A
C560        O565   1.276       .  A
C560        C652   1.490       .  S
O561        C567   1.272       .  A
O561       Cd564   2.485       .  S
C562        O570   1.265       .  A
C562        C611   1.494   1_556  S
C563        O568   1.269       .  A
C563        O566   1.268       .  A
C563        C700   1.480       .  S
Cd564       O571   2.386       .  S
Cd564       O570   2.388       .  S
Cd564       O569   2.389       .  S
Cd564       O565   2.491       .  S
Cd564       O568   2.425       .  S
Cd564       O566   2.466       .  S
C567        O571   1.264       .  A
C567        C625   1.466       .  S
O572        C575   1.273       .  A
O572       Cd577   2.513       .  S
C573        O582   1.263       .  A
C573        O578   1.274       .  A
C573        C612   1.492       .  S
O574        C580   1.267       .  A
O574       Cd577   2.433   1_554  S
C575        O583   1.260       .  A
C575        C724   1.475       .  S
C576        O581   1.269   1_556  A
C576        O579   1.264       .  A
C576        C628   1.465       .  S
Cd577       O584   2.464   1_556  S
Cd577       O583   2.406       .  S
Cd577       O582   2.430   1_556  S
Cd577       O578   2.519   1_556  S
Cd577       O581   2.450   1_556  S
Cd577       O579   2.411       .  S
C580        O584   1.268       .  A
C580        C676   1.486       .  S
O585        C588   1.274       .  A
O585       Cd590   2.508       .  S
C586        O595   1.265       .  A
C586        O591   1.271       .  A
C586        C612   1.499       .  S
O587        C593   1.272       .  A
O587       Cd590   2.486       .  S
C588        O596   1.265       .  A
C588        C712   1.490       .  S
C589        O594   1.269       .  A
C589        O592   1.267       .  A
C589        C637   1.483       .  S
Cd590       O597   2.413       .  S
Cd590       O596   2.388       .  S
Cd590       O595   2.428       .  S
Cd590       O591   2.498       .  S
Cd590       O594   2.448       .  S
Cd590       O592   2.483       .  S
C593        O597   1.264       .  A
C593        C613   1.474       .  S
O598        C601   1.279       .  A
O598       Cd603   2.516       .  S
C599        O608   1.266       .  A
C599        O604   1.274       .  A
C599        C611   1.489       .  S
O600        C606   1.271       .  A
O600       Cd603   2.431       .  S
C601        O609   1.260       .  A
C601        C661   1.487       .  S
C602        O607   1.270       .  A
C602        O605   1.269   1_556  A
C602        C736   1.481       .  S
Cd603       O610   2.438       .  S
Cd603       O609   2.332       .  S
Cd603       O608   2.406       .  S
Cd603       O604   2.509       .  S
Cd603       O607   2.474   1_554  S
Cd603       O605   2.440       .  S
C606        O610   1.266       .  A
C606        C616   1.474       .  S
C613        C614   1.401       .  A
C613        C618   1.408       .  A
C614        C615   1.399       .  A
C614        H623   1.084       .  S
C615        C616   1.416       .  A
C615        S619   1.800       .  S
C616        C617   1.399       .  A
C617        C618   1.398       .  A
C617        H624   1.084       .  S
C618        S620   1.786       .  S
S619        H622   1.406       .  S
S620        H621   1.403       .  S
C625        C626   1.403       .  A
C625        C630   1.411       .  A
C626        C627   1.402       .  A
C626        H635   1.081       .  S
C627        C628   1.410       .  A
C627        S631   1.803   1_556  S
C628        C629   1.400       .  A
C629        C630   1.391       .  A
C629        H636   1.085       .  S
C630        S632   1.804       .  S
S631        H634   1.406   1_554  S
S632        H633   1.404       .  S
C637        C638   1.410       .  A
C637        C642   1.411       .  A
C638        C639   1.411       .  A
C638        H647   1.084       .  S
C639        C640   1.414       .  A
C639        S643   1.800       .  S
C640        C641   1.406       .  A
C641        C642   1.392       .  A
C641        H648   1.082       .  S
C642        S644   1.805       .  S
S643        H646   1.407       .  S
S644        H645   1.407       .  S
C649        C650   1.402       .  A
C649        C654   1.416       .  A
C650        C651   1.397       .  A
C650        H659   1.084       .  S
C651        C652   1.422       .  A
C651        S655   1.803       .  S
C652        C653   1.404       .  A
C653        C654   1.401       .  A
C653        H660   1.084       .  S
C654        S656   1.794       .  S
S655        H658   1.408       .  S
S656        H657   1.405       .  S
C661        C662   1.407       .  A
C661        C666   1.424       .  A
C662        C663   1.406       .  A
C662        H671   1.084       .  S
C663        C664   1.416       .  A
C663        S667   1.802   1_655  S
C664        C665   1.397       .  A
C665        C666   1.390       .  A
C665        H672   1.085       .  S
C666        S668   1.806       .  S
S667        H670   1.407       .  S
S668        H669   1.407       .  S
C673        C674   1.407       .  A
C673        C678   1.412       .  A
C674        C675   1.397       .  A
C674        H683   1.084       .  S
C675        C676   1.414       .  A
C675        S679   1.801       .  S
C676        C677   1.409       .  A
C677        C678   1.401       .  A
C677        H684   1.082       .  S
C678        S680   1.800       .  S
S679        H682   1.408       .  S
S680        H681   1.407       .  S
C685        C686   1.404   1_545  A
C685        C690   1.409       .  A
C686        C687   1.405       .  A
C686        H695   1.084       .  S
C687        C688   1.416       .  A
C687        S691   1.800       .  S
C688        C689   1.404   1_565  A
C689        C690   1.385       .  A
C689        H696   1.084       .  S
C690        S692   1.807       .  S
S691        H694   1.407       .  S
S692        H693   1.401       .  S
C697        C698   1.408       .  A
C697        C702   1.415       .  A
C698        C699   1.390       .  A
C698        H707   1.084       .  S
C699        C700   1.411       .  A
C699        S703   1.805       .  S
C700        C701   1.408       .  A
C701        C702   1.408       .  A
C701        H708   1.084       .  S
C702        S704   1.800   1_655  S
S703        H706   1.408       .  S
S704        H705   1.407   1_455  S
C709        C710   1.405       .  A
C709        C714   1.413       .  A
C710        C711   1.407       .  A
C710        H719   1.082       .  S
C711        C712   1.418       .  A
C711        S715   1.799       .  S
C712        C713   1.406       .  A
C713        C714   1.394       .  A
C713        H720   1.083       .  S
C714        S716   1.804       .  S
S715        H718   1.408       .  S
S716        H717   1.405       .  S
C721        C722   1.404       .  A
C721        C726   1.414       .  A
C722        C723   1.401       .  A
C722        H731   1.083   1_545  S
C723        C724   1.413       .  A
C723        S727   1.805       .  S
C724        C725   1.404       .  A
C725        C726   1.404       .  A
C725        H732   1.084       .  S
C726        S728   1.803       .  S
S727        H730   1.407       .  S
S728        H729   1.407       .  S
C733        C734   1.405       .  A
C733        C738   1.419       .  A
C734        C735   1.394       .  A
C734        H743   1.083       .  S
C735        C736   1.413       .  A
C735        S739   1.802   1_556  S
C736        C737   1.405       .  A
C737        C738   1.407       .  A
C737        H744   1.083       .  S
C738        S740   1.799       .  S
S739        H742   1.404       .  S
S740        H741   1.407       .  S
C745        C746   1.402       .  A
C745        C750   1.414       .  A
C746        C747   1.399       .  A
C746        H755   1.080   1_565  S
C747        C748   1.405       .  A
C747        S751   1.796   1_565  S
C748        C749   1.402       .  A
C749        C750   1.397       .  A
C749        H756   1.084       .  S
C750        S752   1.805       .  S
S751        H754   1.407   1_545  S
S752        H753   1.407       .  S
