geometry optimzed in LAMMPS
_audit_creation_date              2020-11-30 
_audit_creation_method            'lammps2cif' 
_symmetry_space_group_name_H-M    'P1' 
_symmetry_Int_Tables_number       1 
_symmetry_cell_setting            triclinic 
loop_ 
_symmetry_equiv_pos_as_xyz 
  x,y,z 
_cell_length_a                    24.34612214888403 
_cell_length_b                    24.419039721531323 
_cell_length_c                    42.30379721600703 
_cell_angle_alpha                 90.93488909958778 
_cell_angle_beta                  89.22631848474695 
_cell_angle_gamma                 90.77997570514164 
loop_ 
_atom_site_label 
_atom_site_type_symbol 
_atom_site_fract_x 
_atom_site_fract_y 
_atom_site_fract_z 
_atom_site_charge 
O1          O  0.24838249  0.09157987  0.19333215    -0.81050
O2          O  0.32047863  0.14868580  0.04906566    -0.81070
O3          O  0.27800855  0.23297223  0.12904321    -0.81080
O4          O  0.17848186  0.14412772  0.11215587    -0.81020
O5          O  0.34821486  0.21897672  0.09486062    -0.81150
O6          O  0.17806183  0.08276238  0.14688400    -0.81070
O7          O  0.23860955  0.16921808  0.06503924    -0.81050
O8          O  0.23004615  0.17378119  0.17931485    -0.81090
C9          C  0.22190575  0.13445260  0.19830286     1.08640
C10         C  0.27755236  0.17618171  0.04566299     1.08520
C11         C  0.30783138  0.24731561  0.10570746     1.08660
C12         C  0.15226174  0.11801930  0.13192465     1.08540
O13         O  0.23933704  0.00206922  0.16165406    -0.81050
O14         O  0.40304094  0.12744452  0.12689425    -0.81130
O15         O  0.34166813  0.12968782  0.18822611    -0.81060
O16         O  0.28011588  0.05665187  0.06030112    -0.81040
O17         O  0.36110688  0.05638962  0.08263232    -0.81100
O18         O  0.33909574  0.05219046  0.15996056    -0.81060
O19         O  0.22361186  0.02196750  0.11009342    -0.81020
O20         O  0.38567498  0.20584786  0.14734649    -0.81090
Co21       Co  0.26235959  0.06829199  0.14891244     1.51530
Co22       Co  0.35524963  0.13617543  0.09110004     1.51690
Co23       Co  0.30628648  0.18284724  0.15874686     1.51570
Co24       Co  0.23266450  0.10107536  0.08968143     1.51470
O25         O  0.28974895  0.12804337  0.12207291    -1.42980
C26         C  0.22684132  0.98801513  0.13368931     1.08570
C27         C  0.42092030  0.17317766  0.13580423     1.08660
C28         C  0.35729197  0.08036034  0.18325964     1.08590
C29         C  0.32706886  0.03570913  0.06332197     1.08570
O30         O  0.29892240  0.49748847  0.13145820    -0.81050
O31         O  0.15694130  0.72169153  0.08135674    -0.81070
O32         O  0.12079148  0.54847442  0.12553946    -0.81080
O33         O  0.29193748  0.60415585  0.06094024    -0.81020
O34         O  0.12264458  0.61564930  0.09411708    -0.81150
O35         O  0.24339234  0.54267344  0.08472568    -0.81070
O36         O  0.20576547  0.66450450  0.05634876    -0.81050
O37         O  0.21054223  0.47599984  0.13237301    -0.81090
C38         C  0.26094725  0.46123248  0.13025269     1.08640
C39         C  0.17622541  0.70541473  0.05532601     1.08520
C40         C  0.09448588  0.58178025  0.10885241     1.08660
C41         C  0.26170106  0.56162005  0.05955468     1.08540
O42         O  0.34719863  0.59109389  0.10958453    -0.81050
O43         O  0.12527875  0.64306248  0.16228865    -0.81130
O44         O  0.22503521  0.55468985  0.17739382    -0.81060
O45         O  0.24887558  0.74372881  0.10452172    -0.81040
O46         O  0.18668803  0.73283198  0.14392590    -0.81100
O47         O  0.30141033  0.59481158  0.16598662    -0.81060
O48         O  0.33489201  0.67918661  0.11045552    -0.81020
O49         O  0.17216757  0.56796627  0.17270844    -0.81090
Co50       Co  0.27139934  0.57024044  0.12571185     1.51530
Co51       Co  0.15220630  0.67440957  0.12072613     1.51690
Co52       Co  0.20516214  0.55593954  0.12930550     1.51570
Co53       Co  0.26828544  0.67130327  0.08505274     1.51470
O54         O  0.22631702  0.63693913  0.12122922    -1.42980
C55         C  0.36660183  0.63943371  0.11217941     1.08570
C56         C  0.13571118  0.60345435  0.18028870     1.08660
C57         C  0.27150355  0.57420464  0.18677770     1.08590
C58         C  0.22116551  0.76131545  0.12847195     1.08570
O59         O  0.88671286  0.09771863  0.12843192    -0.81050
O60         O  0.70725934  0.12180464  0.18690957    -0.81070
O61         O  0.86255004  0.19832158  0.16795207    -0.81080
O62         O  0.71987739  0.02995262  0.13843459    -0.81020
O63         O  0.79538073  0.18246999  0.20038265    -0.81150
O64         O  0.80882762  0.02267398  0.13811005    -0.81070
O65         O  0.64722425  0.10297443  0.15039652    -0.81050
O66         O  0.89282119  0.17852649  0.10942089    -0.81090
C67         C  0.91651516  0.13721961  0.11992339     1.08640
C68         C  0.65931464  0.10773547  0.17943558     1.08520
C69         C  0.84525293  0.19289247  0.19574880     1.08660
C70         C  0.76217134  0.00485601  0.14621036     1.08540
O71         O  0.75359731  0.04845186  0.07946508    -0.81050
O72         O  0.76522035  0.26374438  0.15221511    -0.81130
O73         O  0.78508075  0.20508133  0.08784402    -0.81060
O74         O  0.68147884  0.16817335  0.09774100    -0.81040
O75         O  0.66932509  0.20422290  0.14484910    -0.81100
O76         O  0.83038984  0.13337042  0.07007142    -0.81060
O77         O  0.66370646  0.05695513  0.08743666    -0.81020
O78         O  0.84427557  0.27158890  0.12487626    -0.81090
Co79       Co  0.81751877  0.08004908  0.10653563     1.51530
Co80       Co  0.73771498  0.18837678  0.16879410     1.51690
Co81       Co  0.81972990  0.20002026  0.12828315     1.51570
Co82       Co  0.70743379  0.09974030  0.11666126     1.51470
O83         O  0.77464447  0.13451888  0.13628160    -1.42980
C84         C  0.70355349  0.03759936  0.07106337     1.08570
C85         C  0.80193674  0.29245924  0.13722607     1.08660
C86         C  0.80816136  0.17963805  0.06551854     1.08590
C87         C  0.65249915  0.19633972  0.11692096     1.08570
O88         O  0.82450426  0.59673369  0.12672352    -0.81050
O89         O  0.69153646  0.58817315  0.17532348    -0.81070
O90         O  0.80897005  0.72928395  0.16701624    -0.81080
O91         O  0.72206782  0.53434990  0.12020382    -0.81020
O92         O  0.77118136  0.65917088  0.19189570    -0.81150
O93         O  0.78395101  0.53288936  0.08029834    -0.81070
O94         O  0.62322062  0.57722855  0.14657447    -0.81050
O95         O  0.84923230  0.67974121  0.11419791    -0.81090
C96         C  0.86195673  0.63134346  0.12184869     1.08640
C97         C  0.64179621  0.57656848  0.17399763     1.08520
C98         C  0.80656422  0.69755298  0.19074097     1.08660
C99         C  0.75900648  0.50962834  0.10333592     1.08540
O100        O  0.70127455  0.59462094  0.06305443    -0.81050
O101        O  0.70448913  0.74914873  0.17908491    -0.81130
O102        O  0.75572465  0.71764711  0.07823714    -0.81060
O103        O  0.62881796  0.66417385  0.10460000    -0.81040
O104        O  0.61993922  0.67985375  0.15624918    -0.81100
O105        O  0.80346868  0.64703186  0.06463823    -0.81060
O106        O  0.63171204  0.55332012  0.08586617    -0.81020
O107        O  0.71571391  0.76728680  0.12946542    -0.81090
Co108      Co  0.76155821  0.60028956  0.09805356     1.51530
Co109      Co  0.69809507  0.66747288  0.17363724     1.51690
Co110      Co  0.77929034  0.72111226  0.12198987     1.51570
Co111      Co  0.67550847  0.60182531  0.11141843     1.51470
O112        O  0.72967895  0.65641396  0.12935743    -1.42980
C113        C  0.66178598  0.55850002  0.06166651     1.08570
C114        C  0.70960631  0.78364710  0.15740705     1.08660
C115        C  0.78936887  0.69635326  0.05933228     1.08590
C116        C  0.59947947  0.67820320  0.12824917     1.08570
O117        O  0.29995970  0.37562977  0.94111478    -0.81050
O118        O  0.22617527  0.33984744  0.80490037    -0.81070
O119        O  0.21013992  0.29288612  0.90372020    -0.81080
O120        O  0.37604166  0.42742907  0.84651908    -0.81020
O121        O  0.23369682  0.27633112  0.85581596    -0.81150
O122        O  0.37553086  0.38910822  0.89407182    -0.81070
O123        O  0.31182056  0.36047562  0.81365007    -0.81050
O124        O  0.22767820  0.32618834  0.92607128    -0.81090
C125        C  0.26730048  0.33557968  0.94519273     1.08640
C126        C  0.27597807  0.34492265  0.79467329     1.08520
C127        C  0.22334188  0.25738549  0.88243655     1.08660
C128        C  0.39755341  0.39750273  0.86739842     1.08540
O129        O  0.34297814  0.49858188  0.88516276    -0.81050
O130        O  0.12641499  0.32151005  0.84995269    -0.81130
O131        O  0.19324724  0.41584323  0.93376044    -0.81060
O132        O  0.22581718  0.44186376  0.80949978    -0.81040
O133        O  0.16827497  0.42132503  0.84618078    -0.81100
O134        O  0.24969161  0.47610326  0.91663122    -0.81060
O135        O  0.28183106  0.50490856  0.84936096    -0.81020
O136        O  0.12404711  0.35275800  0.89962961    -0.81090
Co137      Co  0.31317118  0.43129611  0.90702511     1.51530
Co138      Co  0.20395798  0.35039911  0.85259752     1.51690
Co139      Co  0.19832085  0.37399641  0.89178636     1.51570
Co140      Co  0.29760060  0.43195397  0.83228353     1.51470
O141        O  0.27227101  0.39030491  0.87117701    -1.42980
C142        C  0.31278310  0.52805725  0.86876545     1.08570
C143        C  0.09887294  0.33457575  0.87538424     1.08660
C144        C  0.21842880  0.46087716  0.93807391     1.08590
C145        C  0.17623473  0.43530687  0.81817273     1.08570
O146        O  0.29728754  0.93679348  0.93555570    -0.81050
O147        O  0.31263755  0.90147514  0.80014788    -0.81070
O148        O  0.37715090  0.90062548  0.88067692    -0.81080
O149        O  0.27771696  0.00851190  0.88439816    -0.81020
O150        O  0.36769245  0.83955581  0.84212790    -0.81150
O151        O  0.20745930  0.98971344  0.91332710    -0.81070
O152        O  0.32199749  0.97983281  0.82667172    -0.81050
O153        O  0.35047761  0.86477230  0.94079603    -0.81090
C154        C  0.33287771  0.91021373  0.95141874     1.08640
C155        C  0.33063355  0.95029353  0.80221251     1.08520
C156        C  0.39884488  0.86984621  0.85971672     1.08660
C157        C  0.23988360  0.02545219  0.90196172     1.08540
O158        O  0.16227400  0.88958925  0.88726783    -0.81050
O159        O  0.26068724  0.78598498  0.85778183    -0.81130
O160        O  0.24706284  0.83226743  0.92629867    -0.81060
O161        O  0.21736217  0.94397297  0.80693942    -0.81040
O162        O  0.20904414  0.85456614  0.81414010    -0.81100
O163        O  0.19581508  0.89561346  0.94920180    -0.81060
O164        O  0.16644190  0.96735805  0.86138542    -0.81020
O165        O  0.32911091  0.79454226  0.89016605    -0.81090
Co166      Co  0.22993987  0.90983210  0.90917206     1.51530
Co167      Co  0.28553557  0.84724598  0.83105605     1.51690
Co168      Co  0.31115081  0.87235545  0.90228851     1.51570
Co169      Co  0.24817227  0.97247146  0.84674664     1.51470
O170        O  0.26783608  0.90111811  0.86649222    -1.42980
C171        C  0.13856061  0.92581349  0.87152209     1.08570
C172        C  0.29541083  0.76403758  0.87528047     1.08660
C173        C  0.21330887  0.84687574  0.94858917     1.08590
C174        C  0.19497004  0.89838050  0.80034225     1.08570
O175        O  0.79773685  0.37608096  0.96181540    -0.81050
O176        O  0.76807323  0.30508867  0.80795167    -0.81070
O177        O  0.69584675  0.25306794  0.90981446    -0.81080
O178        O  0.85009614  0.42487120  0.87577611    -0.81020
O179        O  0.74928794  0.24357488  0.86710219    -0.81150
O180        O  0.84121697  0.35126996  0.90295725    -0.81070
O181        O  0.82468836  0.35228382  0.83442501    -0.81050
O182        O  0.77093153  0.30280256  0.93667327    -0.81090
C183        C  0.79061002  0.32413910  0.96149810     1.08640
C184        C  0.81259049  0.33268264  0.80867313     1.08520
C185        C  0.72833613  0.22392148  0.89224412     1.08660
C186        C  0.87129598  0.38359736  0.88810290     1.08540
O187        O  0.78565884  0.46294246  0.91374655    -0.81050
O188        O  0.63877789  0.28829787  0.86842955    -0.81130
O189        O  0.67144066  0.34479184  0.95958842    -0.81060
O190        O  0.72993074  0.41339040  0.81093035    -0.81040
O191        O  0.66610908  0.35210481  0.82263597    -0.81100
O192        O  0.70257220  0.41637020  0.93559573    -0.81060
O193        O  0.74518589  0.47767557  0.86794778    -0.81020
O194        O  0.63813147  0.36018909  0.89930304    -0.81090
Co195      Co  0.77067478  0.38059047  0.91781593     1.51530
Co196      Co  0.70953372  0.29978098  0.84417484     1.51690
Co197      Co  0.70565949  0.33610599  0.91654261     1.51570
Co198      Co  0.78370466  0.41499917  0.84860906     1.51470
O199        O  0.74034426  0.35991390  0.87485147    -1.42980
C200        C  0.76069592  0.49487365  0.89491189     1.08570
C201        C  0.61407479  0.32933654  0.88020584     1.08660
C202        C  0.67706442  0.39704672  0.95939049     1.08590
C203        C  0.68490197  0.38787485  0.80467471     1.08570
O204        O  0.84299113  0.88343558  0.94935771    -0.81050
O205        O  0.82275642  0.78469788  0.82807853    -0.81070
O206        O  0.70101345  0.76346878  0.90967313    -0.81080
O207        O  0.86835591  0.92960094  0.85329237    -0.81020
O208        O  0.77026741  0.74738683  0.87930294    -0.81150
O209        O  0.87715045  0.86315666  0.88724286    -0.81070
O210        O  0.82452867  0.86642177  0.80593815    -0.81050
O211        O  0.79177768  0.81222372  0.93483882    -0.81090
C212        C  0.82597673  0.83457267  0.95425728     1.08640
C213        C  0.84156495  0.81732610  0.80756222     1.08520
C214        C  0.73486387  0.72921494  0.89813273     1.08660
C215        C  0.89900353  0.89734654  0.86850980     1.08540
O216        O  0.82137003  0.96692065  0.90258987    -0.81050
O217        O  0.66410310  0.79689551  0.85641792    -0.81130
O218        O  0.69188693  0.85403179  0.95275924    -0.81060
O219        O  0.71637591  0.91262250  0.81744807    -0.81040
O220        O  0.72414200  0.82582342  0.80425603    -0.81100
O221        O  0.74229444  0.91975472  0.93287716    -0.81060
O222        O  0.75867647  0.97506904  0.86626599    -0.81020
O223        O  0.65986356  0.86765472  0.88974828    -0.81090
Co224      Co  0.80799377  0.88495566  0.90852598     1.51530
Co225      Co  0.74678537  0.79175955  0.84426769     1.51690
Co226      Co  0.72593071  0.84396900  0.91089033     1.51570
Co227      Co  0.78960586  0.91814369  0.83798305     1.51470
O228        O  0.76701384  0.85985511  0.86964663    -1.42980
C229        C  0.78634850  0.99614190  0.88845787     1.08570
C230        C  0.63689384  0.83642644  0.86948531     1.08660
C231        C  0.71209954  0.90212096  0.95575435     1.08590
C232        C  0.70505039  0.87258704  0.79914516     1.08570
O233        O  0.05997042  0.35022561  0.69123432    -0.81050
O234        O  0.00280137  0.28773470  0.59506428    -0.81070
O235        O  0.96506536  0.27395734  0.66937487    -0.81080
O236        O  0.11234301  0.35731522  0.61968592    -0.81020
O237        O  0.91595947  0.27127474  0.62723502    -0.81150
O238        O  0.12071265  0.41643001  0.65808113    -0.81070
O239        O  0.04701801  0.34618532  0.56795815    -0.81050
O240        O  0.98623957  0.34535586  0.71728065    -0.81090
C241        C  0.03811458  0.34629697  0.71759692     1.08640
C242        C  0.02687892  0.29865434  0.57007562     1.08520
C243        C  0.94063483  0.24633916  0.64875144     1.08660
C244        C  0.14182498  0.37991938  0.64021993     1.08540
O245        O  0.02532077  0.49244778  0.65780912    -0.81050
O246        O  0.88226655  0.38799236  0.61406808    -0.81130
O247        O  0.91802710  0.42446570  0.67983099    -0.81060
O248        O  0.99932813  0.45184225  0.58618654    -0.81040
O249        O  0.95449109  0.38534076  0.56484897    -0.81100
O250        O  0.98432198  0.44167559  0.70940243    -0.81060
O251        O  0.08252855  0.47580443  0.61975469    -0.81020
O252        O  0.86672917  0.34031996  0.65574934    -0.81090
Co253      Co  0.04207133  0.42127975  0.67464460     1.51530
Co254      Co  0.94442596  0.33903235  0.60469915     1.51690
Co255      Co  0.94226033  0.34912776  0.67517899     1.51570
Co256      Co  0.05386925  0.40331868  0.60320407     1.51470
O257        O  0.99614680  0.37831011  0.63894263    -1.42980
C258        C  0.05201024  0.50917421  0.63445328     1.08570
C259        C  0.84914971  0.37161102  0.63475552     1.08660
C260        C  0.93279953  0.43823050  0.70644313     1.08590
C261        C  0.97324657  0.43372398  0.56333626     1.08570
O262        O  0.01886519  0.81115582  0.68960694    -0.81050
O263        O  0.94333580  0.88687774  0.56085704    -0.81070
O264        O  0.87472909  0.88206714  0.64045840    -0.81080
O265        O  0.05519455  0.76230258  0.58178185    -0.81020
O266        O  0.88959302  0.94902801  0.60663637    -0.81150
O267        O  0.01660686  0.76288461  0.62932165    -0.81070
O268        O  0.95322987  0.80811373  0.58397444    -0.81050
O269        O  0.93580993  0.81723486  0.67481950    -0.81090
C270        C  0.96854995  0.80251631  0.69542303     1.08640
C271        C  0.93530947  0.83481884  0.56124427     1.08520
C272        C  0.85766072  0.91580800  0.62083524     1.08660
C273        C  0.03663879  0.73612923  0.60544110     1.08540
O274        O  0.11130220  0.80042008  0.65349009    -0.81050
O275        O  0.99193212  0.99815156  0.62625576    -0.81130
O276        O  0.00213512  0.91301401  0.69692752    -0.81060
O277        O  0.04449922  0.86818478  0.55626971    -0.81040
O278        O  0.04716721  0.94205934  0.58331427    -0.81100
O279        O  0.07426051  0.90477959  0.66527603    -0.81060
O280        O  0.10612187  0.84962773  0.61064830    -0.81020
O281        O  0.93038466  0.97808810  0.66289129    -0.81090
Co282      Co  0.04476134  0.83698442  0.64610924     1.51530
Co283      Co  0.96969801  0.94142349  0.59585414     1.51690
Co284      Co  0.93837874  0.89640330  0.66662998     1.51570
Co285      Co  0.02639857  0.82968774  0.59849549     1.51470
O286        O  0.98660238  0.88372891  0.62765773    -1.42980
C287        C  0.13534274  0.82535667  0.63127072     1.08570
C288        C  0.95946268  0.01276715  0.64795482     1.08660
C289        C  0.05423896  0.91650345  0.69214335     1.08590
C290        C  0.05425456  0.91933834  0.55710304     1.08570
O291        O  0.45435700  0.34153018  0.68940617    -0.81050
O292        O  0.45479943  0.42437222  0.56306610    -0.81070
O293        O  0.46925647  0.48263780  0.62143423    -0.81080
O294        O  0.38892388  0.36071184  0.60628436    -0.81020
O295        O  0.53842485  0.48083169  0.58865464    -0.81150
O296        O  0.40385501  0.29334794  0.63964569    -0.81070
O297        O  0.42080912  0.34783566  0.54355571    -0.81050
O298        O  0.42764297  0.42103301  0.67225474    -0.81090
C299        C  0.41915566  0.37884848  0.68942682     1.08640
C300        C  0.42738600  0.39953567  0.54151862     1.08520
C301        C  0.50086027  0.50791550  0.60275111     1.08660
C302        C  0.37193874  0.32950506  0.62787548     1.08540
O303        O  0.51765839  0.25757403  0.61815675    -0.81050
O304        O  0.59614113  0.38287974  0.60101160    -0.81130
O305        O  0.53937384  0.39882721  0.68780864    -0.81060
O306        O  0.52586023  0.32128435  0.56123117    -0.81040
O307        O  0.55925924  0.39629086  0.54031687    -0.81100
O308        O  0.56212883  0.31668645  0.66945616    -0.81060
O309        O  0.44766132  0.26217881  0.58718118    -0.81020
O310        O  0.58478561  0.44734575  0.63799377    -0.81090
Co311      Co  0.48592465  0.30444405  0.65182393     1.51530
Co312      Co  0.52646166  0.39880513  0.58305871     1.51690
Co313      Co  0.50347821  0.43563107  0.65286156     1.51570
Co314      Co  0.45665589  0.34541276  0.58453814     1.51470
O315        O  0.49413652  0.37057374  0.62417201    -1.42980
C316        C  0.48768159  0.23480177  0.59766843     1.08570
C317        C  0.61609466  0.41394663  0.62217278     1.08660
C318        C  0.56917776  0.35688889  0.68880951     1.08590
C319        C  0.55368811  0.34421857  0.53925978     1.08570
O320        O  0.45099815  0.88540558  0.68869281    -0.81050
O321        O  0.47142257  0.91126399  0.55430055    -0.81070
O322        O  0.48367659  0.98911081  0.60403386    -0.81080
O323        O  0.39056316  0.87784249  0.60473688    -0.81020
O324        O  0.55382137  0.96920159  0.57403206    -0.81150
O325        O  0.39953064  0.82116049  0.64482920    -0.81070
O326        O  0.41987439  0.83879775  0.54417121    -0.81050
O327        O  0.43957593  0.95954754  0.66063794    -0.81090
C328        C  0.43072666  0.93264837  0.68545299     1.08640
C329        C  0.44012588  0.88460726  0.53547324     1.08520
C330        C  0.51796356  0.00391576  0.58343289     1.08660
C331        C  0.36970084  0.85038004  0.62706482     1.08540
O332        O  0.50461641  0.76661011  0.63067224    -0.81050
O333        O  0.60221210  0.87342564  0.60351479    -0.81130
O334        O  0.54637054  0.92861141  0.68166810    -0.81060
O335        O  0.51995648  0.80472310  0.56458571    -0.81040
O336        O  0.57311311  0.86368477  0.54041334    -0.81100
O337        O  0.55500222  0.83933690  0.67363225    -0.81060
O338        O  0.43634657  0.77039289  0.59778286    -0.81020
O339        O  0.59354512  0.95494932  0.62635235    -0.81090
Co340      Co  0.47937593  0.82971524  0.65711848     1.51530
Co341      Co  0.53686647  0.88697572  0.58014277     1.51690
Co342      Co  0.51379465  0.95496906  0.64147552     1.51570
Co343      Co  0.45580420  0.84771318  0.58511446     1.51470
O344        O  0.49670101  0.88143250  0.62171223    -1.42980
C345        C  0.47191222  0.74243804  0.61190555     1.08570
C346        C  0.62336780  0.91470216  0.61722466     1.08660
C347        C  0.56890284  0.88350422  0.68802044     1.08590
C348        C  0.55429609  0.81473893  0.54212173     1.08570
O349        O  0.01280996  0.07778320  0.29781084    -0.81050
O350        O  0.06572180  0.11661255  0.44855906    -0.81070
O351        O  0.10867994  0.20433997  0.35548584    -0.81080
O352        O  0.95350685  0.01885493  0.38421043    -0.81020
O353        O  0.12786259  0.15803766  0.39797790    -0.81150
O354        O  0.02875638  0.02850737  0.35648506    -0.81070
O355        O  0.01284319  0.04628500  0.43378154    -0.81050
O356        O  0.07719272  0.11766030  0.32548583    -0.81090
C357        C  0.06231499  0.09601650  0.29921097     1.08640
C358        C  0.04882399  0.06701025  0.45146411     1.08520
C359        C  0.14335896  0.17968780  0.37235642     1.08660
C360        C  0.99517170  0.99790349  0.37105426     1.08540
O361        O  0.91694074  0.07691610  0.34388736    -0.81050
O362        O  0.05734549  0.25440611  0.39655786    -0.81130
O363        O  0.03070968  0.21344128  0.30767198    -0.81060
O364        O  0.94696346  0.13396665  0.45188472    -0.81040
O365        O  0.98688892  0.20339354  0.43213652    -0.81100
O366        O  0.95939249  0.16539311  0.32360435    -0.81060
O367        O  0.89446876  0.11866103  0.38929159    -0.81020
O368        O  0.98868247  0.23833882  0.36634788    -0.81090
Co369      Co  0.99839248  0.09956290  0.34220773     1.51530
Co370      Co  0.05755325  0.17926873  0.41705003     1.51690
Co371      Co  0.03112409  0.17590050  0.34773141     1.51570
Co372      Co  0.95517657  0.08506196  0.41225465     1.51470
O373        O  0.01265320  0.13133092  0.38626330    -1.42980
C374        C  0.88066595  0.09857665  0.36246627     1.08570
C375        C  0.01547761  0.27208659  0.38270823     1.08660
C376        C  0.98091308  0.19908467  0.30401751     1.08590
C377        C  0.96828763  0.18086185  0.45577695     1.08570
O378        O  0.96407589  0.56660576  0.29972246    -0.81050
O379        O  0.03356609  0.58037248  0.43488746    -0.81070
O380        O  0.07679500  0.69610368  0.35170530    -0.81080
O381        O  0.91662154  0.52680378  0.39355147    -0.81020
O382        O  0.08867891  0.63040255  0.38498996    -0.81150
O383        O  0.98600119  0.53013283  0.35930888    -0.81070
O384        O  0.94531771  0.58086002  0.44741512    -0.81050
O385        O  0.03442708  0.61105897  0.31993749    -0.81090
C386        C  0.01340830  0.58339786  0.29697817     1.08640
C387        C  0.99322074  0.56386983  0.45182884     1.08520
C388        C  0.10896611  0.66429545  0.36581363     1.08660
C389        C  0.95742165  0.50357525  0.37894096     1.08540
O390        O  0.87824864  0.56954725  0.34388006    -0.81050
O391        O  0.03595243  0.73604166  0.40159996    -0.81130
O392        O  0.99420053  0.71111852  0.30486148    -0.81060
O393        O  0.90043082  0.68203673  0.42977471    -0.81040
O394        O  0.98338246  0.68367343  0.45047957    -0.81100
O395        O  0.92290720  0.66304618  0.32091860    -0.81060
O396        O  0.86398660  0.63611608  0.37614978    -0.81020
O397        O  0.96869075  0.73735727  0.36730439    -0.81090
Co398      Co  0.95781461  0.59648800  0.34193485     1.51530
Co399      Co  0.03319978  0.65550032  0.41577261     1.51690
Co400      Co  0.99712517  0.67361272  0.34521216     1.51570
Co401      Co  0.90891100  0.60799306  0.40957742     1.51470
O402        O  0.97501063  0.63206300  0.38446400    -1.42980
C403        C  0.84491486  0.60322763  0.35630166     1.08570
C404        C  0.00164546  0.76277270  0.38517774     1.08660
C405        C  0.94461585  0.69578546  0.30065357     1.08590
C406        C  0.93400287  0.69994305  0.45032955     1.08570
O407        O  0.45500960  0.08430860  0.31387880    -0.81050
O408        O  0.52299709  0.06491229  0.44198947    -0.81070
O409        O  0.50398897  0.00570072  0.35642851    -0.81080
O410        O  0.39209397  0.11206695  0.37460180    -0.81340
O411        O  0.57026051  0.01025842  0.39158659    -0.81150
O412        O  0.41037436  0.17648833  0.34142348    -0.81070
O413        O  0.43854661  0.06260588  0.42419780    -0.81050
O414        O  0.52741439  0.03893883  0.29662851    -0.81090
C415        C  0.47767886  0.05225568  0.29303458     1.08640
C416        C  0.47483359  0.04398738  0.44200452     1.08520
C417        C  0.53642942  0.98222803  0.37449996     1.08660
C418        C  0.37513614  0.14637666  0.35530986     1.08540
O419        O  0.51647470  0.21881665  0.35776514    -0.81050
O420        O  0.62359781  0.11786600  0.37443732    -0.81130
O421        O  0.56375990  0.14034560  0.31687080    -0.81060
O422        O  0.49101938  0.16554327  0.44302255    -0.81040
O423        O  0.57448957  0.16741973  0.42249273    -0.81100
O424        O  0.49590297  0.18280765  0.29548668    -0.81060
O425        O  0.44815123  0.21631455  0.39279423    -0.81020
O426        O  0.61131369  0.05154460  0.34111792    -0.81090
Co427      Co  0.48921766  0.15154454  0.33752122     1.51530
Co428      Co  0.57005252  0.09170253  0.40580770     1.51690
Co429      Co  0.53042661  0.07289904  0.33789338     1.51570
Co430      Co  0.44503021  0.13692430  0.40669874     1.51470
O431        O  0.50771177  0.11273473  0.37795877    -1.42980
C432        C  0.48578141  0.24277599  0.37783815     1.08570
C433        C  0.64389881  0.08545140  0.35443170     1.08660
C434        C  0.54263754  0.16046407  0.29221225     1.08590
C435        C  0.53962135  0.18547013  0.44205827     1.08570
O436        O  0.37745284  0.61476145  0.32320873    -0.81050
O437        O  0.46065122  0.54263137  0.41627601    -0.81070
O438        O  0.47774261  0.49512141  0.35326750    -0.81080
O439        O  0.36756829  0.64851031  0.39644573    -0.81020
O440        O  0.53960249  0.51018176  0.38998077    -0.81150
O441        O  0.37558642  0.70546273  0.35828675    -0.81070
O442        O  0.42719259  0.60604244  0.44383819    -0.81050
O443        O  0.43468617  0.55424677  0.30340286    -0.81090
C444        C  0.38784416  0.57719399  0.30365303     1.08640
C445        C  0.43639165  0.55602910  0.44089751     1.08520
C446        C  0.50913082  0.47687146  0.37403224     1.08660
C447        C  0.34515667  0.67685726  0.37593790     1.08540
O448        O  0.49125386  0.72436646  0.34210199    -0.81050
O449        O  0.58357731  0.62542892  0.37771010    -0.81130
O450        O  0.53770712  0.62151056  0.30931912    -0.81060
O451        O  0.52156488  0.67511360  0.42516928    -0.81040
O452        O  0.55607246  0.59675384  0.43930665    -0.81100
O453        O  0.46761025  0.65507545  0.28880643    -0.81060
O454        O  0.45506710  0.73441205  0.38948925    -0.81020
O455        O  0.58088423  0.55506837  0.34613231    -0.81090
Co456      Co  0.43448107  0.66866081  0.33265317     1.51530
Co457      Co  0.51863890  0.59016848  0.39834813     1.51690
Co458      Co  0.50335290  0.56015777  0.33104256     1.51570
Co459      Co  0.44501522  0.65954751  0.40821126     1.51470
O460        O  0.46794831  0.61271095  0.36505755    -1.42980
C461        C  0.48573145  0.75217898  0.36728869     1.08570
C462        C  0.60835272  0.59358782  0.35865078     1.08660
C463        C  0.51554118  0.63814154  0.28537581     1.08590
C464        C  0.54927448  0.64793802  0.44487108     1.08570
C465        C  0.52865434  0.89173962  0.40056076    -0.27230
C466        C  0.53620278  0.92162869  0.37305422    -0.15300
C467        C  0.53494766  0.89370562  0.34358671     0.35330
C468        C  0.52195993  0.83753418  0.34215925    -0.26680
C469        C  0.50907166  0.80864378  0.36976043    -0.15920
C470        C  0.51455846  0.83580918  0.39939065     0.36410
N471        N  0.50479480  0.80680816  0.42819816    -0.90170
H472        H  0.53082286  0.91252581  0.42290342     0.17530
H473        H  0.51912595  0.81733754  0.31922893     0.17520
N474        N  0.54581488  0.92264697  0.31495147    -0.89200
H475        H  0.50985771  0.83270784  0.44781601     0.34890
H476        H  0.53554245  0.77774043  0.42947985     0.39990
H477        H  0.51145499  0.91826932  0.30051415     0.39610
H478        H  0.57905384  0.90414124  0.30331994     0.34500
C479        C  0.45471315  0.39433198  0.38611319    -0.27230
C480        C  0.50675673  0.41768217  0.38013925    -0.15300
C481        C  0.55276123  0.38319831  0.37694094     0.35330
C482        C  0.54449522  0.32638921  0.37680966    -0.26680
C483        C  0.49212709  0.30285161  0.38176971    -0.15920
C484        C  0.44703990  0.33765671  0.38760269     0.36410
N485        N  0.39257418  0.31699599  0.39341532    -0.90170
H486        H  0.41934870  0.42055041  0.38907766     0.17530
H487        H  0.57967065  0.30023959  0.37293109     0.17520
N488        N  0.60798240  0.40364129  0.37312530    -0.89200
H489        H  0.39258919  0.29417967  0.41409922     0.34890
H490        H  0.38115524  0.29164658  0.37442439     0.39990
H491        H  0.61029515  0.44599368  0.37590377     0.39610
H492        H  0.62110901  0.39381920  0.35011969     0.34500
C493        C  0.75758761  0.56114247  0.33561152    -0.27230
C494        C  0.78499586  0.60518495  0.35021321    -0.15300
C495        C  0.75350465  0.64944825  0.36242838     0.35330
C496        C  0.69625957  0.64503807  0.36415296    -0.26680
C497        C  0.66866634  0.59854656  0.35250518    -0.15920
C498        C  0.69994637  0.55796851  0.33586202     0.36410
N499        N  0.67502338  0.51293441  0.31910978    -0.90170
H500        H  0.78091983  0.52804712  0.32491095     0.17530
H501        H  0.67341166  0.67819883  0.37516513     0.17520
N502        N  0.77941474  0.69899856  0.37366219    -0.89200
H503        H  0.64849713  0.52834073  0.30228115     0.34890
H504        H  0.65295500  0.48882884  0.33503289     0.39990
H505        H  0.76807032  0.70511217  0.39737504     0.39610
H506        H  0.76441090  0.73157396  0.36071951     0.34500
C507        C  0.19904788  0.62131565  0.37270714    -0.27230
C508        C  0.16981443  0.66684313  0.36250625    -0.15300
C509        C  0.19930408  0.71459204  0.35377795     0.35330
C510        C  0.25675144  0.71704698  0.35806268    -0.26680
C511        C  0.28500224  0.67286262  0.37091632    -0.15920
C512        C  0.25581425  0.62377190  0.37729707     0.36410
N513        N  0.28374128  0.57611002  0.38807059    -0.90170
H514        H  0.17705984  0.58380824  0.37845507     0.17530
H515        H  0.27934461  0.75407755  0.35210832     0.17520
N516        N  0.17095079  0.76092942  0.34179273    -0.89200
H517        H  0.25743944  0.54189568  0.38790571     0.34890
H518        H  0.29370709  0.58317629  0.41175955     0.39990
H519        H  0.15490206  0.74934827  0.31984311     0.39610
H520        H  0.19846580  0.79332192  0.33757591     0.34500
C521        C  0.79594079  0.04970705  0.34193357    -0.27230
C522        C  0.82114640  0.09773560  0.35426168    -0.15300
C523        C  0.78790708  0.14321076  0.36160874     0.35330
C524        C  0.73082922  0.13898317  0.35791346    -0.26680
C525        C  0.70472152  0.08950087  0.34872323    -0.15920
C526        C  0.73791188  0.04486939  0.33944179     0.36410
N527        N  0.71281699  0.99400962  0.32948652    -0.90170
H528        H  0.82124791  0.01473547  0.33611990     0.17530
H529        H  0.70610721  0.17412209  0.36434227     0.17520
N530        N  0.81193867  0.19356103  0.37339778    -0.89200
H531        H  0.74285026  0.96485650  0.32436974     0.34890
H532        H  0.69267251  0.00102561  0.30830197     0.39990
H533        H  0.82230521  0.18774143  0.39697849     0.39610
H534        H  0.78304921  0.22486912  0.37375630     0.34500
C535        C  0.22274624  0.12011399  0.36499169    -0.27230
C536        C  0.20134360  0.17276605  0.36205057    -0.15300
C537        C  0.23670927  0.21572013  0.35154423     0.35330
C538        C  0.29300144  0.20512292  0.34645838    -0.26680
C539        C  0.31486923  0.15325303  0.35218982    -0.15920
C540        C  0.27856582  0.10996000  0.36014488     0.36410
N541        N  0.29841624  0.05556286  0.36420487    -0.90170
H542        H  0.19597999  0.08648282  0.37206319     0.17530
H543        H  0.32030746  0.23866200  0.34010787     0.17520
N544        N  0.21862171  0.27105736  0.34808324    -0.89200
H545        H  0.27740101  0.02934156  0.34861151     0.34890
H546        H  0.28877342  0.04355764  0.38725990     0.39990
H547        H  0.17761902  0.27582223  0.35476137     0.39610
H548        H  0.22191065  0.28049596  0.32411051     0.34500
C549        C  0.04548441  0.91451095  0.38665183    -0.27230
C550        C  0.00046448  0.93784002  0.37163849    -0.15300
C551        C  0.95605416  0.90375665  0.36227832     0.35330
C552        C  0.95722446  0.84798076  0.36851085    -0.26680
C553        C  0.00214211  0.82376198  0.38326043    -0.15920
C554        C  0.04702849  0.85762013  0.39242261     0.36410
N555        N  0.09374014  0.83458260  0.40747342    -0.90170
H556        H  0.07883256  0.94096055  0.39456268     0.17530
H557        H  0.92237157  0.82311848  0.36105374     0.17520
N558        N  0.90946190  0.92384099  0.34564261    -0.89200
H559        H  0.12228666  0.86529690  0.41339611     0.34890
H560        H  0.11328004  0.80904698  0.39090370     0.39990
H561        H  0.91543463  0.96395896  0.33811674     0.39610
H562        H  0.87568554  0.92326111  0.36116895     0.34500
C563        C  0.04013650  0.37105198  0.37855801    -0.27230
C564        C  0.99970491  0.33105277  0.38418655    -0.15300
C565        C  0.94485412  0.34790614  0.38985872     0.35330
C566        C  0.93184094  0.40437901  0.38954267    -0.26680
C567        C  0.97209487  0.44440081  0.38266801    -0.15920
C568        C  0.02717077  0.42703924  0.37729011     0.36410
N569        N  0.07021821  0.46642818  0.37076237    -0.90170
H570        H  0.08209591  0.35833660  0.37425178     0.17530
H571        H  0.88982503  0.41697346  0.39364995     0.17520
N572        N  0.90273161  0.30781430  0.39664144    -0.89200
H573        H  0.10790974  0.44712396  0.36714448     0.34890
H574        H  0.07457598  0.49171930  0.39076629     0.39990
H575        H  0.89640633  0.28444091  0.37608540     0.39610
H576        H  0.86543151  0.32693373  0.40179878     0.34500
C577        C  0.48879537  0.91548206  0.48978693    -0.27230
C578        C  0.43676465  0.90834654  0.50368877    -0.15300
C579        C  0.39465326  0.94434857  0.49509741     0.35330
C580        C  0.40684295  0.98690176  0.47366247    -0.26680
C581        C  0.46138586  0.99769729  0.46342952    -0.15920
C582        C  0.50308989  0.96271092  0.47332660     0.36410
N583        N  0.56015873  0.97509882  0.46699400    -0.90170
H584        H  0.52098538  0.88808429  0.49588730     0.17530
H585        H  0.37425676  0.01379478  0.46672322     0.17520
N586        N  0.34041961  0.94055311  0.50871994    -0.89200
H587        H  0.58515674  0.94319870  0.47400041     0.34890
H588        H  0.57098165  0.00871650  0.48133230     0.39990
H589        H  0.33709666  0.90679412  0.52351035     0.39610
H590        H  0.31308699  0.93303812  0.49025102     0.34500
C591        C  0.53946548  0.71703942  0.52454019    -0.27230
C592        C  0.56738406  0.76744123  0.51946824    -0.15300
C593        C  0.60106507  0.77069116  0.49193415     0.35330
C594        C  0.60126614  0.72687658  0.46946854    -0.26680
C595        C  0.56908161  0.67876419  0.47359047    -0.15920
C596        C  0.54044183  0.67304011  0.50265672     0.36410
N597        N  0.50753217  0.62527446  0.50973280    -0.90170
H598        H  0.51312217  0.71233819  0.54504792     0.17530
H599        H  0.62331789  0.73243266  0.44729884     0.17520
N600        N  0.63364597  0.81840586  0.48531095    -0.89200
H601        H  0.52258522  0.60881331  0.53048892     0.34890
H602        H  0.51233916  0.59465003  0.49252231     0.39990
H603        H  0.65971051  0.82590510  0.50438117     0.39610
H604        H  0.60756859  0.85158918  0.48314545     0.34500
C605        C  0.38446519  0.51711363  0.48901912    -0.27230
C606        C  0.42644792  0.51363661  0.46584833    -0.15300
C607        C  0.46332716  0.46957810  0.46766188     0.35330
C608        C  0.45462754  0.42759895  0.48926271    -0.26680
C609        C  0.41467417  0.43138321  0.51298452    -0.15920
C610        C  0.37952838  0.47757915  0.51328158     0.36410
N611        N  0.33920372  0.48596202  0.53792233    -0.90170
H612        H  0.35687415  0.55153655  0.48905587     0.17530
H613        H  0.48424999  0.39498258  0.48995972     0.17520
N614        N  0.51405984  0.47064725  0.45034944    -0.89200
H615        H  0.35075424  0.52120923  0.55067558     0.34890
H616        H  0.33869311  0.45356822  0.55375635     0.39990
H617        H  0.51867434  0.43238832  0.43950759     0.39610
H618        H  0.54582385  0.47584229  0.46655180     0.34500
C619        C  0.56944995  0.28071130  0.45813332    -0.27230
C620        C  0.55734152  0.22612399  0.46613228    -0.15300
C621        C  0.56332692  0.21000756  0.49748684     0.35330
C622        C  0.57284948  0.25005885  0.52088494    -0.26680
C623        C  0.57394389  0.30635938  0.51380864    -0.15920
C624        C  0.57848962  0.32120629  0.48188593     0.36410
N625        N  0.59070108  0.37683999  0.47376365    -0.90170
H626        H  0.56973152  0.29203359  0.43362553     0.17530
H627        H  0.57365947  0.23752430  0.54523426     0.17520
N628        N  0.55900064  0.15307571  0.50542904    -0.89200
H629        H  0.59533116  0.37990041  0.44924849     0.34890
H630        H  0.62904800  0.38699061  0.48319699     0.39990
H631        H  0.51806001  0.14066620  0.50267535     0.39610
H632        H  0.56848918  0.14762317  0.52913345     0.34500
C633        C  0.44074653  0.58968358  0.60383638    -0.27230
C634        C  0.49378205  0.56808719  0.59957306    -0.15300
C635        C  0.53889944  0.60465903  0.59682127     0.35330
C636        C  0.53044688  0.66140955  0.60053587    -0.26680
C637        C  0.47764691  0.68272853  0.60569545    -0.15920
C638        C  0.43210518  0.64652668  0.60648796     0.36410
N639        N  0.37773981  0.66722203  0.61199300    -0.90170
H640        H  0.40586090  0.56185911  0.60588625     0.17530
H641        H  0.56537906  0.68935064  0.59951280     0.17520
N642        N  0.59326412  0.58421770  0.59128627    -0.89200
H643        H  0.34921015  0.63497542  0.61370370     0.34890
H644        H  0.36698000  0.68932204  0.59210576     0.39990
H645        H  0.60419908  0.56292055  0.61137383     0.39610
H646        H  0.62156251  0.61656907  0.58908117     0.34500
C647        C  0.46194508  0.14502105  0.57054329    -0.27230
C648        C  0.50090140  0.17721897  0.58692070    -0.15300
C649        C  0.55149811  0.15245204  0.59497685     0.35330
C650        C  0.55934261  0.09602931  0.58914304    -0.26680
C651        C  0.51825482  0.06303569  0.57565810    -0.15920
C652        C  0.46976605  0.08819529  0.56521615     0.36410
N653        N  0.42790036  0.05555328  0.54996343    -0.90170
H654        H  0.42382820  0.16340363  0.56355835     0.17530
H655        H  0.59603975  0.07676220  0.59767038     0.17520
N656        N  0.59420828  0.18389011  0.61031585    -0.89200
H657        H  0.39587196  0.08025670  0.54264961     0.34890
H658        H  0.41087283  0.02884350  0.56658902     0.39990
H659        H  0.60900876  0.21292674  0.59434144     0.39610
H660        H  0.62752680  0.15921094  0.61558676     0.34500
C661        C  0.01912340  0.03537138  0.50290350    -0.27230
C662        C  0.06067835  0.03445367  0.47986464    -0.15300
C663        C  0.10117886  0.99322194  0.48132480     0.35330
C664        C  0.09861781  0.95439615  0.50603665    -0.26680
C665        C  0.05576116  0.95532145  0.52877993    -0.15920
C666        C  0.01580839  0.99660466  0.52673726     0.36410
N667        N  0.97032740  0.99876480  0.54853298    -0.90170
H668        H  0.98673571  0.06509011  0.50141538     0.17530
H669        H  0.13036466  0.92394697  0.50760345     0.17520
N670        N  0.14536145  0.98994209  0.45856838    -0.89200
H671        H  0.93402475  0.99523766  0.53566678     0.34890
H672        H  0.97082372  0.03711324  0.55989859     0.39990
H673        H  0.14316666  0.02133939  0.44217281     0.39610
H674        H  0.14075324  0.95298435  0.44602805     0.34500
C675        C  0.91815995  0.82689299  0.50272530    -0.27230
C676        C  0.91609409  0.80290236  0.53276316    -0.15300
C677        C  0.90724900  0.74545224  0.53426189     0.35330
C678        C  0.90808074  0.71314395  0.50647633    -0.26680
C679        C  0.91578938  0.73663119  0.47674855    -0.15920
C680        C  0.91715958  0.79454640  0.47473975     0.36410
N681        N  0.92041212  0.82170207  0.44491452    -0.90170
H682        H  0.92411001  0.87078440  0.50084595     0.17530
H683        H  0.90591166  0.66893458  0.50834722     0.17520
N684        N  0.90040013  0.71909981  0.56410511    -0.89200
H685        H  0.88677954  0.84773995  0.44380442     0.34890
H686        H  0.91527464  0.79353294  0.42635738     0.39990
H687        H  0.93179832  0.69068221  0.56625757     0.39610
H688        H  0.86293747  0.69766604  0.56396565     0.34500
C689        C  0.77074855  0.96548671  0.62534106    -0.27230
C690        C  0.79872476  0.91783315  0.61648862    -0.15300
C691        C  0.76973131  0.86954329  0.60887133     0.35330
C692        C  0.71261394  0.86958558  0.61029884    -0.26680
C693        C  0.68371464  0.91704971  0.61921531    -0.15920
C694        C  0.71316995  0.96551036  0.62728516     0.36410
N695        N  0.68502999  0.01421066  0.63747970    -0.90170
H696        H  0.79397475  0.00186731  0.63217588     0.17530
H697        H  0.69069637  0.83202872  0.60426849     0.17520
N698        N  0.79867626  0.82054806  0.59997867    -0.89200
H699        H  0.71295498  0.04649975  0.64124249     0.34890
H700        H  0.66679075  0.00615560  0.65947025     0.39990
H701        H  0.81920180  0.82810834  0.57860402     0.39610
H702        H  0.77117542  0.78813348  0.59559865     0.34500
C703        C  0.28581904  0.80289002  0.64639239    -0.27230
C704        C  0.30957926  0.84668695  0.62980049    -0.15300
C705        C  0.27554135  0.88396639  0.61444814     0.35330
C706        C  0.21885729  0.87551908  0.61490277    -0.26680
C707        C  0.19523771  0.83104245  0.63080321    -0.15920
C708        C  0.22891395  0.79444739  0.64698372     0.36410
N709        N  0.20553203  0.74841697  0.66344218    -0.90170
H710        H  0.31173157  0.77408601  0.65818713     0.17530
H711        H  0.19319652  0.90453596  0.60306131     0.17520
N712        N  0.29807792  0.93085046  0.59868242    -0.89200
H713        H  0.23605755  0.72641199  0.67462072     0.34890
H714        H  0.18820879  0.72189798  0.64656434     0.39990
H715        H  0.28111528  0.96596363  0.60912589     0.39610
H716        H  0.28590036  0.92892409  0.57508279     0.34500
C717        C  0.98813981  0.44076798  0.50507092    -0.27230
C718        C  0.97469389  0.46627278  0.53408127    -0.15300
C719        C  0.97419144  0.52407910  0.53603700     0.35330
C720        C  0.98662617  0.55493023  0.50914045    -0.26680
C721        C  0.99940519  0.52971745  0.48003642    -0.15920
C722        C  0.00090420  0.47202146  0.47808639     0.36410
N723        N  0.01502832  0.44537892  0.44877358    -0.90170
H724        H  0.99060099  0.39650569  0.50373800     0.17530
H725        H  0.98381809  0.59918918  0.51049269     0.17520
N726        N  0.96024311  0.55130750  0.56535214    -0.89200
H727        H  0.01321643  0.40280657  0.45106005     0.34890
H728        H  0.05600037  0.45554302  0.44369785     0.39990
H729        H  0.91941168  0.54119349  0.57086849     0.39610
H730        H  0.96210658  0.59381110  0.56287972     0.34500
C731        C  0.97225353  0.22564610  0.54260531    -0.27230
C732        C  0.01766951  0.26256037  0.54209057    -0.15300
C733        C  0.04788480  0.26852220  0.51373495     0.35330
C734        C  0.03149507  0.23941337  0.48686113    -0.26680
C735        C  0.98409407  0.20532105  0.48670711    -0.15920
C736        C  0.95477546  0.19773819  0.51521067     0.36410
N737        N  0.90560425  0.16498150  0.51673745    -0.90170
H738        H  0.94797151  0.22067306  0.56405156     0.17530
H739        H  0.05584308  0.24489950  0.46548176     0.17520
N740        N  0.09511509  0.30393951  0.51121200    -0.89200
H741        H  0.91496576  0.12477107  0.51017986     0.34890
H742        H  0.87774293  0.18009058  0.50054634     0.39990
H743        H  0.12282336  0.29397804  0.52881885     0.39610
H744        H  0.08296995  0.34453575  0.51436699     0.34500
C745        C  0.08670736  0.59050231  0.60500256    -0.27230
C746        C  0.04580087  0.56600939  0.62400489    -0.15300
C747        C  0.99833892  0.59592042  0.63253532     0.35330
C748        C  0.99505406  0.65071844  0.62407684    -0.26680
C749        C  0.03743451  0.67625606  0.60693587    -0.15920
C750        C  0.08321949  0.64578236  0.59653968     0.36410
N751        N  0.12702952  0.67153625  0.57887125    -0.90170
H752        H  0.12246249  0.56718744  0.59786009     0.17530
H753        H  0.95957431  0.67419381  0.63159081     0.17520
N754        N  0.95343253  0.57064344  0.64960274    -0.89200
H755        H  0.15737345  0.64314392  0.57290910     0.34890
H756        H  0.14558609  0.70091136  0.59363554     0.39990
H757        H  0.93633232  0.54034226  0.63485419     0.39610
H758        H  0.92229353  0.59877493  0.65441147     0.34500
C759        C  0.98416013  0.16181228  0.66695452    -0.27230
C760        C  0.94135998  0.18598086  0.65028265    -0.15300
C761        C  0.90196742  0.15219072  0.63505810     0.35330
C762        C  0.90696642  0.09504581  0.63646366    -0.26680
C763        C  0.95067060  0.07144463  0.65238412    -0.15920
C764        C  0.98987060  0.10487826  0.66754032     0.36410
N765        N  0.03572892  0.08093459  0.68298584    -0.90170
H766        H  0.01475307  0.18748214  0.67852260     0.17530
H767        H  0.87786228  0.06873826  0.62409904     0.17520
N768        N  0.85757615  0.17573493  0.61807158    -0.89200
H769        H  0.06039861  0.11129067  0.69352295     0.34890
H770        H  0.06006671  0.06172388  0.66566262     0.39990
H771        H  0.83253496  0.19608462  0.63459800     0.39610
H772        H  0.83316035  0.14506201  0.60763546     0.34500
C773        C  0.77059784  0.43652932  0.64000691    -0.27230
C774        C  0.79022375  0.38400200  0.63244595    -0.15300
C775        C  0.75357976  0.34330892  0.62180369     0.35330
C776        C  0.69785844  0.35551970  0.61908975    -0.26680
C777        C  0.67664683  0.40777327  0.62708308    -0.15920
C778        C  0.71427696  0.44906439  0.63782501     0.36410
N779        N  0.69830508  0.50394805  0.64596244    -0.90170
H780        H  0.79928142  0.46803336  0.64792524     0.17530
H781        H  0.67042565  0.32289346  0.61122597     0.17520
N782        N  0.77315541  0.28941260  0.61388829    -0.89200
H783        H  0.70554729  0.51007872  0.67007532     0.34890
H784        H  0.65672037  0.51003141  0.64268540     0.39990
H785        H  0.79960763  0.29286930  0.59432231     0.39610
H786        H  0.74076610  0.26360052  0.60689928     0.34500
C787        C  0.21771100  0.31186142  0.64165982    -0.27230
C788        C  0.20137778  0.36714985  0.64144603    -0.15300
C789        C  0.24263355  0.40874805  0.64111733     0.35330
C790        C  0.29788968  0.39385026  0.64049627    -0.26680
C791        C  0.31427390  0.33887918  0.63847883    -0.15920
C792        C  0.27359672  0.29740166  0.64018554     0.36410
N793        N  0.28762858  0.24067936  0.63901157    -0.90170
H794        H  0.18668808  0.27962933  0.64219352     0.17530
H795        H  0.32871743  0.42625461  0.63920091     0.17520
N796        N  0.23098578  0.46630687  0.63933039    -0.89200
H797        H  0.31331005  0.23309073  0.65801679     0.34890
H798        H  0.30955096  0.23295627  0.61802729     0.39990
H799        H  0.18935812  0.47391684  0.63704125     0.39610
H800        H  0.24935959  0.48088262  0.61855759     0.34500
C801        C  0.68372907  0.84555386  0.74369890    -0.27230
C802        C  0.67199265  0.87913289  0.77023876    -0.15300
C803        C  0.62910498  0.91683780  0.76852086     0.35330
C804        C  0.59789846  0.91855970  0.74080782    -0.26680
C805        C  0.60789142  0.88300623  0.71478303    -0.15920
C806        C  0.65343481  0.84776418  0.71582714     0.36410
N807        N  0.67152223  0.81502191  0.68914505    -0.90170
H808        H  0.71794245  0.81802260  0.74416798     0.17530
H809        H  0.56459307  0.94704380  0.73993844     0.17520
N810        N  0.61642330  0.95215325  0.79506152    -0.89200
H811        H  0.71242219  0.82596294  0.68428446     0.34890
H812        H  0.65060000  0.82446292  0.66867915     0.39990
H813        H  0.60193400  0.92747607  0.81341725     0.39610
H814        H  0.58458221  0.97851875  0.78963676     0.34500
C815        C  0.93379247  0.81962001  0.78223338    -0.27230
C816        C  0.88066927  0.79753859  0.78304271    -0.15300
C817        C  0.86296646  0.76393632  0.75760283     0.35330
C818        C  0.89520751  0.76117697  0.72964876    -0.26680
C819        C  0.94620102  0.78873168  0.72742085    -0.15920
C820        C  0.96721526  0.81404410  0.75507820     0.36410
N821        N  0.02070374  0.83827771  0.75521543    -0.90170
H822        H  0.94842651  0.84392630  0.80215323     0.17530
H823        H  0.87913815  0.74002148  0.70896713     0.17520
N824        N  0.81184750  0.73410217  0.75988193    -0.89200
H825        H  0.04339173  0.81909661  0.77257558     0.34890
H826        H  0.01595599  0.87904692  0.76242089     0.39990
H827        H  0.78036198  0.76229940  0.76249068     0.39610
H828        H  0.80441714  0.71200469  0.73896123     0.34500
C829        C  0.57375255  0.36043011  0.74567860    -0.27230
C830        C  0.60332936  0.35493999  0.71738507    -0.15300
C831        C  0.66013472  0.36740518  0.71745089     0.35330
C832        C  0.68539398  0.38672406  0.74559128    -0.26680
C833        C  0.65557892  0.39083755  0.77410281    -0.15920
C834        C  0.59872577  0.37838031  0.77346032     0.36410
N835        N  0.56552262  0.38339329  0.80129899    -0.90170
H836        H  0.52965793  0.35314728  0.74595319     0.17530
H837        H  0.72890760  0.39573083  0.74567641     0.17520
N838        N  0.69227098  0.35901618  0.68937269    -0.89200
H839        H  0.54671543  0.34530916  0.80523985     0.34890
H840        H  0.53455983  0.41143924  0.79691629     0.39990
H841        H  0.69146321  0.31701344  0.68417100     0.39610
H842        H  0.73330364  0.36979067  0.69335694     0.34500
C843        C  0.88700864  0.39412234  0.78816324    -0.27230
C844        C  0.84456706  0.35529139  0.78102319    -0.15300
C845        C  0.82856651  0.34986659  0.74921128     0.35330
C846        C  0.85135378  0.38587561  0.72679652    -0.26680
C847        C  0.89601158  0.42181046  0.73355913    -0.15920
C848        C  0.91160141  0.42795879  0.76530925     0.36410
N849        N  0.95142610  0.46844469  0.77540687    -0.90170
H850        H  0.90048917  0.40018857  0.81228314     0.17530
H851        H  0.83590082  0.38277008  0.70314345     0.17520
N852        N  0.79040229  0.30834114  0.73840833    -0.89200
H853        H  0.93255595  0.49322326  0.79264919     0.34890
H854        H  0.96188218  0.49483515  0.75706820     0.39990
H855        H  0.78424243  0.27843683  0.75539356     0.39610
H856        H  0.80905811  0.28739904  0.71945214     0.34500
C857        C  0.70059288  0.57574069  0.90458789    -0.27230
C858        C  0.75385964  0.55387369  0.90261688    -0.15300
C859        C  0.79933587  0.59019757  0.90297506     0.35330
C860        C  0.79037158  0.64652045  0.90390100    -0.26680
C861        C  0.73745753  0.66940072  0.90533010    -0.15920
C862        C  0.69160846  0.63281663  0.90636250     0.36410
N863        N  0.63573639  0.65110318  0.90729516    -0.90170
H864        H  0.66538046  0.54813468  0.90367653     0.17530
H865        H  0.82600015  0.67261973  0.90058727     0.17520
N866        N  0.85519042  0.57230004  0.89941829    -0.89200
H867        H  0.61748777  0.63901169  0.88601916     0.34890
H868        H  0.63320510  0.69354454  0.90881333     0.39990
H869        H  0.85796936  0.52999191  0.89683789     0.39610
H870        H  0.87583186  0.58319432  0.92014922     0.34500
C871        C  0.71973818  0.06888113  0.90221239    -0.27230
C872        C  0.77504663  0.05438467  0.89728319    -0.15300
C873        C  0.81522059  0.09681264  0.89586422     0.35330
C874        C  0.79840606  0.15179361  0.89717032    -0.26680
C875        C  0.74262793  0.16629909  0.89977898    -0.15920
C876        C  0.70286110  0.12380434  0.90342549     0.36410
N877        N  0.64493908  0.13389685  0.90645310    -0.90170
H878        H  0.68859449  0.03678947  0.90352770     0.17530
H879        H  0.82931595  0.18377326  0.89423803     0.17520
N880        N  0.87264343  0.08638898  0.89061566    -0.89200
H881        H  0.62591479  0.11719641  0.88641872     0.34890
H882        H  0.63613997  0.17547247  0.90692512     0.39990
H883        H  0.88071024  0.04467263  0.88878061     0.39610
H884        H  0.89370939  0.10123288  0.91042061     0.34500
C885        C  0.12038050  0.94471986  0.77218507    -0.27230
C886        C  0.15529188  0.89927633  0.77420389    -0.15300
C887        C  0.15960219  0.86306216  0.74828142     0.35330
C888        C  0.12879860  0.87284903  0.72118228    -0.26680
C889        C  0.09229213  0.91711585  0.71936903    -0.15920
C890        C  0.08822610  0.95368776  0.74547253     0.36410
N891        N  0.05256204  0.00008616  0.74581165    -0.90170
H892        H  0.11858856  0.97409234  0.79153949     0.17530
H893        H  0.13207795  0.84418132  0.70178665     0.17520
N894        N  0.19609198  0.81730704  0.74917286    -0.89200
H895        H  0.02319760  0.99416275  0.76373643     0.34890
H896        H  0.03117893  0.00265629  0.72472916     0.39990
H897        H  0.23626497  0.83290338  0.75003719     0.39610
H898        H  0.19352251  0.79387910  0.72832587     0.34500
C899        C  0.32174970  0.96680931  0.74595071    -0.27230
C900        C  0.35447737  0.97222733  0.77301450    -0.15300
C901        C  0.41150757  0.97866405  0.76958125     0.35330
C902        C  0.43535179  0.97234511  0.73930188    -0.26680
C903        C  0.40314343  0.95808947  0.71303214    -0.15920
C904        C  0.34559603  0.95834854  0.71612172     0.36410
N905        N  0.31075107  0.94446022  0.69018984    -0.90170
H906        H  0.27760859  0.96159042  0.74855733     0.17530
H907        H  0.47939388  0.97395094  0.73657916     0.17520
N908        N  0.44504847  0.98565578  0.79706151    -0.89200
H909        H  0.32002683  0.90464157  0.68286240     0.34890
H910        H  0.31993636  0.97103223  0.67167112     0.39990
H911        H  0.43505420  0.02328357  0.80762545     0.39610
H912        H  0.48648896  0.98831512  0.79046951     0.34500
C913        C  0.55173294  0.89119907  0.87820293    -0.27230
C914        C  0.57674077  0.84585354  0.86321220    -0.15300
C915        C  0.54337783  0.81138872  0.84393929     0.35330
C916        C  0.48597342  0.82099625  0.84209447    -0.26680
C917        C  0.46071711  0.86477443  0.85871193    -0.15920
C918        C  0.49507327  0.90096812  0.87637012     0.36410
N919        N  0.47252033  0.94710124  0.89335327    -0.90170
H920        H  0.57632328  0.91907675  0.89249940     0.17530
H921        H  0.46063791  0.79318013  0.82819663     0.17520
N922        N  0.56731191  0.76626235  0.82674336    -0.89200
H923        H  0.50369221  0.97413942  0.90066068     0.34890
H924        H  0.45459412  0.93195190  0.91408154     0.39990
H925        H  0.59383940  0.78268493  0.80959884     0.39610
H926        H  0.53711596  0.74407600  0.81448818     0.34500
C927        C  0.98461613  0.95490818  0.86009763    -0.27230
C928        C  0.96051589  0.90335461  0.86656803    -0.15300
C929        C  0.99569784  0.85914561  0.87243747     0.35330
C930        C  0.05311531  0.86761500  0.87210536    -0.26680
C931        C  0.07739988  0.91961740  0.86715981    -0.15920
C932        C  0.04230034  0.96380100  0.86079621     0.36410
N933        N  0.06458149  0.01815129  0.85700838    -0.90170
H934        H  0.95812150  0.98918096  0.85574309     0.17530
H935        H  0.07917886  0.83312789  0.87674221     0.17520
N936        N  0.97334900  0.80545568  0.87853391    -0.89200
H937        H  0.03307966  0.04633531  0.85440030     0.34890
H938        H  0.08726777  0.01869384  0.83591849     0.39990
H939        H  0.95624118  0.80633660  0.90132992     0.39610
H940        H  0.00462459  0.77657244  0.87901700     0.34500
C941        C  0.04746359  0.38071474  0.77471654    -0.27230
C942        C  0.07162814  0.36365315  0.74574003    -0.15300
C943        C  0.12825543  0.37477656  0.74127729     0.35330
C944        C  0.15700537  0.40628985  0.76328002    -0.26680
C945        C  0.13512053  0.42085143  0.79286009    -0.15920
C946        C  0.07861677  0.40938994  0.79825532     0.36410
N947        N  0.05253970  0.42898497  0.82671463    -0.90170
H948        H  0.00432414  0.37237626  0.77882471     0.17530
H949        H  0.19874662  0.41612410  0.75749196     0.17520
N950        N  0.15803748  0.35355288  0.71445385    -0.89200
H951        H  0.01064332  0.41900753  0.82653762     0.34890
H952        H  0.05533704  0.47173977  0.82687398     0.39990
H953        H  0.18795586  0.32717172  0.72266780     0.39610
H954        H  0.17881248  0.38639547  0.70393964     0.34500
C955        C  0.35914884  0.31600146  0.72141980    -0.27230
C956        C  0.37016275  0.36987792  0.71072054    -0.15300
C957        C  0.33852326  0.41271206  0.72340942     0.35330
C958        C  0.30211195  0.40196082  0.74883213    -0.26680
C959        C  0.29339510  0.34872237  0.76092164    -0.15920
C960        C  0.32190356  0.30525363  0.74647968     0.36410
N961        N  0.31731201  0.25136257  0.75951638    -0.90170
H962        H  0.38224750  0.28211621  0.71145921     0.17530
H963        H  0.28539352  0.43686225  0.76142988     0.17520
N964        N  0.34607164  0.46756298  0.71220340    -0.89200
H965        H  0.34238054  0.22395949  0.74695753     0.34890
H966        H  0.27681433  0.23772813  0.75647664     0.39990
H967        H  0.38517446  0.48111785  0.71893177     0.39610
H968        H  0.31800346  0.49394189  0.72323455     0.34500
C969        C  0.51785512  0.30517736  0.86817495    -0.27230
C970        C  0.55951118  0.34477679  0.87103274    -0.15300
C971        C  0.54799014  0.40101713  0.86800103     0.35330
C972        C  0.49442637  0.41698426  0.86328769    -0.26680
C973        C  0.45243184  0.37792947  0.86277367    -0.15920
C974        C  0.46349942  0.32159940  0.86460050     0.36410
N975        N  0.41921632  0.28204005  0.86442790    -0.90170
H976        H  0.52722229  0.26222121  0.87070132     0.17530
H977        H  0.48521072  0.46024656  0.86214843     0.17520
N978        N  0.59086307  0.44190230  0.86930502    -0.89200
H979        H  0.43439460  0.24241697  0.86646654     0.34890
H980        H  0.40046603  0.28369660  0.84238031     0.39990
H981        H  0.58171103  0.46934241  0.88780497     0.39610
H982        H  0.59094520  0.46356551  0.84818755     0.34500
C983        C  0.94359410  0.32241668  0.86783885    -0.27230
C984        C  0.92894050  0.37138526  0.88375047    -0.15300
C985        C  0.96940273  0.40639700  0.89623560     0.35330
C986        C  0.02367729  0.39181961  0.89246312    -0.26680
C987        C  0.03939664  0.34284536  0.87673667    -0.15920
C988        C  0.99880855  0.30757029  0.86404212     0.36410
N989        N  0.01145133  0.25673997  0.84813678    -0.90170
H990        H  0.91183787  0.29536591  0.85852979     0.17530
H991        H  0.05427376  0.42012691  0.90190858     0.17520
N992        N  0.95738633  0.45566874  0.91401428    -0.89200
H993        H  0.99321574  0.22519391  0.86118918     0.34890
H994        H  0.05355350  0.24945502  0.84797107     0.39990
H995        H  0.91547921  0.46050936  0.91832123     0.39610
H996        H  0.97097572  0.48892736  0.90061036     0.34500
C997        C  0.25895493  0.61277258  0.86802210    -0.27230
C998        C  0.30992599  0.58831296  0.87294196    -0.15300
C999        C  0.35549693  0.62163565  0.88113611     0.35330
C1000       C  0.34943200  0.67899326  0.88268639    -0.26680
C1001       C  0.29872406  0.70347247  0.87649077    -0.15920
C1002       C  0.25262042  0.66962490  0.86993960     0.36410
N1003       N  0.19922191  0.69272602  0.86573935    -0.90170
H1004       H  0.22347052  0.58717852  0.86261680     0.17530
H1005       H  0.38485489  0.70476931  0.88787981     0.17520
N1006       N  0.40807739  0.59761047  0.88642876    -0.89200
H1007       H  0.16886420  0.66201615  0.86589877     0.34890
H1008       H  0.19860983  0.70924339  0.84311510     0.39990
H1009       H  0.40497202  0.57552731  0.90734830     0.39610
H1010       H  0.43787661  0.62811396  0.89035782     0.34500
C1011       C  0.23193361  0.17801674  0.91927637    -0.27230
C1012       C  0.22434012  0.19759357  0.88849219    -0.15300
C1013       C  0.21477769  0.15946868  0.86361228     0.35330
C1014       C  0.21631073  0.10334292  0.86966650    -0.26680
C1015       C  0.22657305  0.08387177  0.89998017    -0.15920
C1016       C  0.23386625  0.12129107  0.92521406     0.36410
N1017       N  0.24463273  0.10171854  0.95634603    -0.90170
H1018       H  0.23810945  0.20684232  0.93849183     0.17530
H1019       H  0.21101946  0.07426106  0.85026095     0.17520
N1020       N  0.20336086  0.17769262  0.83222541    -0.89200
H1021       H  0.24883176  0.13458802  0.97228907     0.34890
H1022       H  0.28249392  0.08199442  0.95551336     0.39990
H1023       H  0.16553459  0.19748326  0.83315091     0.39610
H1024       H  0.19863585  0.14438036  0.81660554     0.34500
C1025       C  0.63949636  0.46450613  0.03975143    -0.27230
C1026       C  0.65526245  0.51958994  0.03419251    -0.15300
C1027       C  0.67093991  0.53418408  0.00340013     0.35330
C1028       C  0.67245474  0.49370862  0.97933981    -0.26680
C1029       C  0.66103702  0.43759571  0.98508892    -0.15920
C1030       C  0.64336673  0.42323001  0.01579246     0.36410
N1031       N  0.63154988  0.36698403  0.02300989    -0.90170
H1032       H  0.62783070  0.45277388  0.06352579     0.17530
H1033       H  0.68567158  0.50615555  0.95604774     0.17520
N1034       N  0.68683623  0.58981042  0.99679898    -0.89200
H1035       H  0.61787731  0.36356803  0.04643907     0.34890
H1036       H  0.66851251  0.34577191  0.02136868     0.39990
H1037       H  0.65218327  0.61411898  0.00025819     0.39610
H1038       H  0.69880854  0.59377766  0.97312843     0.34500
C1039       C  0.82273423  0.82494343  0.01214216    -0.27230
C1040       C  0.83924527  0.80303547  0.98293767    -0.15300
C1041       C  0.85106800  0.74642319  0.98080259     0.35330
C1042       C  0.83684513  0.71143535  0.00615325    -0.26680
C1043       C  0.81370533  0.73272177  0.03425145    -0.15920
C1044       C  0.81130772  0.79090218  0.03800739     0.36410
N1045       N  0.79548009  0.81545919  0.06787024    -0.90170
H1046       H  0.81459633  0.86841790  0.01416029     0.17530
H1047       H  0.84239163  0.66764154  0.00359796     0.17520
N1048       N  0.87892095  0.72516738  0.95321306    -0.89200
H1049       H  0.79482363  0.85816491  0.06646885     0.34890
H1050       H  0.82577654  0.80625828  0.08417619     0.39990
H1051       H  0.85543780  0.73344046  0.93355824     0.39610
H1052       H  0.88241876  0.68262454  0.95442409     0.34500
C1053       C  0.63100761  0.61943111  0.22680689    -0.27230
C1054       C  0.60621632  0.58845994  0.20233247    -0.15300
C1055       C  0.54850598  0.57846488  0.20425422     0.35330
C1056       C  0.51824633  0.59997062  0.23027304    -0.26680
C1057       C  0.54413336  0.62989625  0.25468523    -0.15920
C1058       C  0.60109721  0.64036166  0.25233643     0.36410
N1059       N  0.62986205  0.67325776  0.27530959    -0.90170
H1060       H  0.67453481  0.62899722  0.22600654     0.17530
H1061       H  0.47474546  0.59038913  0.23234712     0.17520
N1062       N  0.51938199  0.54586338  0.18114984    -0.89200
H1063       H  0.62959532  0.65342072  0.29695110     0.34890
H1064       H  0.60990744  0.71072249  0.27798379     0.39990
H1065       H  0.54627765  0.52662270  0.16531684     0.39610
H1066       H  0.49960958  0.51386718  0.19309342     0.34500
C1067       C  0.89739532  0.72345221  0.21625949    -0.27230
C1068       C  0.84170594  0.70743797  0.21905005    -0.15300
C1069       C  0.81920809  0.69922017  0.24959292     0.35330
C1070       C  0.85346857  0.70102175  0.27593167    -0.26680
C1071       C  0.91030533  0.71105622  0.27309355    -0.15920
C1072       C  0.93203656  0.72554543  0.24307579     0.36410
N1073       N  0.98881037  0.74153259  0.23972359    -0.90170
H1074       H  0.91443443  0.73189684  0.19302719     0.17530
H1075       H  0.83562283  0.69209778  0.29891808     0.17520
N1076       N  0.76140057  0.68813332  0.25380334    -0.89200
H1077       H  0.99773782  0.75231013  0.21637727     0.34890
H1078       H  0.01283119  0.70766150  0.24451983     0.39990
H1079       H  0.74035076  0.72296089  0.24697003     0.39610
H1080       H  0.75151077  0.68208566  0.27763818     0.34500
C1081       C  0.66486163  0.92626409  0.00855201    -0.27230
C1082       C  0.70343682  0.93888806  0.98443280    -0.15300
C1083       C  0.73772014  0.98573098  0.98915094     0.35330
C1084       C  0.73295476  0.01790183  0.01662344    -0.26680
C1085       C  0.69620644  0.00485868  0.04111193    -0.15920
C1086       C  0.66093948  0.95832180  0.03687601     0.36410
N1087       N  0.62325865  0.94022403  0.06108281    -0.90170
H1088       H  0.63875459  0.89025056  0.00590825     0.17530
H1089       H  0.76049121  0.05295329  0.01928716     0.17520
N1090       N  0.78013273  0.00002480  0.96691800    -0.89200
H1091       H  0.58351322  0.94399797  0.05239725     0.34890
H1092       H  0.62562735  0.96473567  0.08141828     0.39990
H1093       H  0.81792245  0.99778283  0.97825363     0.39610
H1094       H  0.77460468  0.04079174  0.96069286     0.34500
C1095       C  0.76455418  0.20697229  0.01723936    -0.27230
C1096       C  0.81167798  0.20784034  0.03527552    -0.15300
C1097       C  0.85330680  0.24767280  0.02910192     0.35330
C1098       C  0.84621415  0.28665888  0.00551382    -0.26680
C1099       C  0.79789110  0.28674669  0.98813855    -0.15920
C1100       C  0.75717728  0.24560080  0.99388357     0.36410
N1101       N  0.70694666  0.24355598  0.97671107    -0.90170
H1102       H  0.73167553  0.17792965  0.02248523     0.17530
H1103       H  0.87826064  0.31680115  0.00086658     0.17520
N1104       N  0.90235124  0.25053090  0.04714308    -0.89200
H1105       H  0.67433118  0.24759695  0.99288825     0.34890
H1106       H  0.70344614  0.20483479  0.96594343     0.39990
H1107       H  0.92085518  0.21217161  0.04570818     0.39610
H1108       H  0.89133275  0.25899735  0.07060049     0.34500
C1109       C  0.77960601  0.85580214  0.15840924    -0.27230
C1110       C  0.72494066  0.84030026  0.16470818    -0.15300
C1111       C  0.68610039  0.87988909  0.17308664     0.35330
C1112       C  0.70154338  0.93535165  0.17137784    -0.26680
C1113       C  0.75479658  0.95099162  0.16098645    -0.15920
C1114       C  0.79539524  0.91080976  0.15709263     0.36410
N1115       N  0.85112072  0.92552457  0.14884370    -0.90170
H1116       H  0.80950905  0.82506259  0.15212002     0.17530
H1117       H  0.67042172  0.96616599  0.17512136     0.17520
N1118       N  0.63069831  0.86386439  0.18113494    -0.89200
H1119       H  0.87506011  0.89061550  0.14551094     0.34890
H1120       H  0.86763174  0.94701023  0.16815130     0.39990
H1121       H  0.61324196  0.84551233  0.16108128     0.39610
H1122       H  0.60721049  0.89833484  0.18667376     0.34500
C1123       C  0.80088987  0.39015226  0.15125572    -0.27230
C1124       C  0.79022475  0.34807977  0.12952001    -0.15300
C1125       C  0.76971988  0.35903571  0.09940510     0.35330
C1126       C  0.76237014  0.41285220  0.09066352    -0.26680
C1127       C  0.77295116  0.45509768  0.11223375    -0.15920
C1128       C  0.79102349  0.44426421  0.14308871     0.36410
N1129       N  0.80009752  0.48808196  0.16562737    -0.90170
H1130       H  0.81629724  0.38070107  0.17443298     0.17530
H1131       H  0.74653369  0.42153911  0.06745348     0.17520
N1132       N  0.75526829  0.31545962  0.07794105    -0.89200
H1133       H  0.81698761  0.47309161  0.18631670     0.34890
H1134       H  0.76181109  0.50370559  0.17215197     0.39990
H1135       H  0.77688166  0.32171144  0.05679937     0.39610
H1136       H  0.71338572  0.31827235  0.07318146     0.34500
C1137       C  0.57156861  0.13778972  0.20387711    -0.27230
C1138       C  0.61900886  0.10580921  0.20540347    -0.15300
C1139       C  0.63757455  0.08918906  0.23509900     0.35330
C1140       C  0.61486950  0.11243763  0.26225388    -0.26680
C1141       C  0.56883052  0.14659845  0.26132445    -0.15920
C1142       C  0.54494149  0.15664580  0.23178959     0.36410
N1143       N  0.49364444  0.18453350  0.23020277    -0.90170
H1144       H  0.55693812  0.15031189  0.18107536     0.17530
H1145       H  0.63285151  0.10143071  0.28449133     0.17520
N1146       N  0.68177999  0.05119830  0.23847033    -0.89200
H1147       H  0.47811841  0.18125507  0.20735869     0.34890
H1148       H  0.50126764  0.22599316  0.23517200     0.39990
H1149       H  0.69324590  0.03399920  0.21666302     0.39610
H1150       H  0.66653598  0.01839605  0.25169425     0.34500
C1151       C  0.85798851  0.20942240  0.25318477    -0.27230
C1152       C  0.88207662  0.20178321  0.22312512    -0.15300
C1153       C  0.93994726  0.20623669  0.21991597     0.35330
C1154       C  0.97227552  0.21359327  0.24693869    -0.26680
C1155       C  0.94797292  0.21525735  0.27701937    -0.15920
C1156       C  0.89030978  0.21653135  0.28006884     0.36410
N1157       N  0.86489152  0.22294435  0.31072087    -0.90170
H1158       H  0.81367293  0.20894291  0.25591606     0.17530
H1159       H  0.01665236  0.21246138  0.24470072     0.17520
N1160       N  0.96604615  0.19947878  0.18962946    -0.89200
H1161       H  0.82209849  0.22268753  0.30890290     0.34890
H1162       H  0.87618280  0.26167252  0.31950916     0.39990
H1163       H  0.95959996  0.15852926  0.18317202     0.39610
H1164       H  0.00857904  0.20514539  0.19124906     0.34500
C1165       C  0.20164454  0.46532823  0.99632539    -0.27230
C1166       C  0.22104829  0.49078895  0.96883113    -0.15300
C1167       C  0.25039720  0.54148325  0.97190785     0.35330
C1168       C  0.26281140  0.56267530  0.00154699    -0.26680
C1169       C  0.24613720  0.53608706  0.02897580    -0.15920
C1170       C  0.21294066  0.48788811  0.02643773     0.36410
N1171       N  0.19131059  0.46153483  0.05416526    -0.90170
H1172       H  0.17894225  0.42696495  0.99440547     0.17530
H1173       H  0.28677107  0.60035209  0.00293043     0.17520
N1174       N  0.26966717  0.57260215  0.94556739    -0.89200
H1175       H  0.17055833  0.42517791  0.04808540     0.34890
H1176       H  0.16176179  0.48738759  0.06425266     0.39990
H1177       H  0.23727131  0.57793082  0.93001801     0.39610
H1178       H  0.30229775  0.55215233  0.93466694     0.34500
C1179       C  0.21276876  0.72294776  0.00171587    -0.27230
C1180       C  0.17459018  0.73755223  0.02553366    -0.15300
C1181       C  0.14289642  0.78537361  0.02118448     0.35330
C1182       C  0.15542494  0.81983531  0.99557710    -0.26680
C1183       C  0.19653842  0.80670852  0.97317015    -0.15920
C1184       C  0.22418241  0.75657231  0.97601845     0.36410
N1185       N  0.26610308  0.74033953  0.95380618    -0.90170
H1186       H  0.23681759  0.68624638  0.00373209     0.17530
H1187       H  0.13277828  0.85743828  0.99333775     0.17520
N1188       N  0.09805514  0.80066566  0.04178490    -0.89200
H1189       H  0.25503491  0.70209331  0.94420926     0.34890
H1190       H  0.30281564  0.73595629  0.96601031     0.39990
H1191       H  0.08699982  0.76885619  0.05666965     0.39610
H1192       H  0.06354099  0.80561040  0.02770776     0.34500
C1193       C  0.51957791  0.64967212  0.09597530    -0.27230
C1194       C  0.53881263  0.67692148  0.12349500    -0.15300
C1195       C  0.49974265  0.69320877  0.14677743     0.35330
C1196       C  0.44385562  0.68057532  0.14236908    -0.26680
C1197       C  0.42585509  0.65049804  0.11571238    -0.15920
C1198       C  0.46423323  0.63602716  0.09184442     0.36410
N1199       N  0.44909817  0.60782741  0.06302402    -0.90170
H1200       H  0.54803309  0.63651805  0.07755355     0.17530
H1201       H  0.41424305  0.69334575  0.16029293     0.17520
N1202       N  0.51507851  0.72280269  0.17487948    -0.89200
H1203       H  0.45896367  0.63363371  0.04423820     0.34890
H1204       H  0.40698183  0.60022154  0.06175757     0.39990
H1205       H  0.53790211  0.75749805  0.16836641     0.39610
H1206       H  0.53930447  0.69795723  0.18871231     0.34500
C1207       C  0.95844140  0.65678623  0.11481679    -0.27230
C1208       C  0.92060234  0.61526703  0.12108225    -0.15300
C1209       C  0.93972423  0.56075476  0.12303073     0.35330
C1210       C  0.99653495  0.54986640  0.11934323    -0.26680
C1211       C  0.03421709  0.59217093  0.11229261    -0.15920
C1212       C  0.01324284  0.64625348  0.10943665     0.36410
N1213       N  0.04554073  0.69282469  0.10079265    -0.90170
H1214       H  0.94530907  0.69885805  0.11290306     0.17530
H1215       H  0.01090381  0.50831031  0.12146122     0.17520
N1216       N  0.90209110  0.51635974  0.12839375    -0.89200
H1217       H  0.07418188  0.70132076  0.11825680     0.34890
H1218       H  0.06265716  0.68568832  0.07840608     0.39990
H1219       H  0.91413597  0.49638313  0.14879245     0.39610
H1220       H  0.90550179  0.48869401  0.10936462     0.34500
C1221       C  0.01759101  0.59469681  0.23955990    -0.27230
C1222       C  0.04434148  0.57871759  0.26691946    -0.15300
C1223       C  0.10161020  0.56950473  0.26556400     0.35330
C1224       C  0.13055773  0.57703603  0.23705913    -0.26680
C1225       C  0.10413657  0.59615455  0.21012446    -0.15920
C1226       C  0.04700605  0.60455672  0.21151758     0.36410
N1227       N  0.01827482  0.62247942  0.18441935    -0.90170
H1228       H  0.97391820  0.60289311  0.24039246     0.17530
H1229       H  0.17426397  0.56947425  0.23628519     0.17520
N1230       N  0.13131534  0.55212700  0.29255745    -0.89200
H1231       H  0.98668519  0.59411526  0.18006255     0.34890
H1232       H  0.00002369  0.65990169  0.19004113     0.39990
H1233       H  0.11225141  0.51676549  0.30131324     0.39610
H1234       H  0.12990156  0.58280865  0.31000887     0.34500
C1235       C  0.33476354  0.62169742  0.26287270    -0.27230
C1236       C  0.35027118  0.57198746  0.27642053    -0.15300
C1237       C  0.33311552  0.52205129  0.26198198     0.35330
C1238       C  0.30259233  0.52349746  0.23388176    -0.26680
C1239       C  0.29011784  0.57351373  0.21973643    -0.15920
C1240       C  0.30575335  0.62295302  0.23459882     0.36410
N1241       N  0.29408118  0.67431204  0.22008610    -0.90170
H1242       H  0.34799377  0.66023963  0.27355659     0.17530
H1243       H  0.29116653  0.48533786  0.22212362     0.17520
N1244       N  0.34527933  0.46972648  0.27505249    -0.89200
H1245       H  0.30919338  0.70711437  0.23374176     0.34890
H1246       H  0.25138265  0.67822060  0.21966432     0.39990
H1247       H  0.36570400  0.47396247  0.29650165     0.39610
H1248       H  0.37179526  0.44958738  0.25922981     0.34500
C1249       C  0.38022231  0.00773209  0.01580994    -0.27230
C1250       C  0.34308794  0.99293407  0.03999971    -0.15300
C1251       C  0.31130903  0.94443962  0.03645119     0.35330
C1252       C  0.31563884  0.91322978  0.00839518    -0.26680
C1253       C  0.34775279  0.93161278  0.98291319    -0.15920
C1254       C  0.38145155  0.97853791  0.98677983     0.36410
N1255       N  0.41447220  0.99795027  0.96077867    -0.90170
H1256       H  0.40370786  0.04556881  0.01820822     0.17530
H1257       H  0.28898968  0.87771159  0.00507980     0.17520
N1258       N  0.27183579  0.92902998  0.06029611    -0.89200
H1259       H  0.43728729  0.03264832  0.96759620     0.34890
H1260       H  0.38794879  0.01040510  0.94312278     0.39990
H1261       H  0.25451117  0.89057281  0.05504541     0.39610
H1262       H  0.23964490  0.95680384  0.05958627     0.34500
C1263       C  0.32348508  0.23603630  0.00548376    -0.27230
C1264       C  0.27456999  0.21742110  0.02010344    -0.15300
C1265       C  0.22417605  0.23924428  0.01040359     0.35330
C1266       C  0.22415742  0.28000285  0.98729455    -0.26680
C1267       C  0.27289870  0.29783923  0.97219055    -0.15920
C1268       C  0.32338831  0.27488544  0.98133722     0.36410
N1269       N  0.37486382  0.28684390  0.96571515    -0.90170
H1270       H  0.36247503  0.21934801  0.01238739     0.17530
H1271       H  0.18529530  0.29663726  0.98009823     0.17520
N1272       N  0.17299854  0.21902687  0.02330948    -0.89200
H1273       H  0.39912606  0.30960088  0.98149163     0.34890
H1274       H  0.37031318  0.30990096  0.94546446     0.39990
H1275       H  0.16853274  0.17813054  0.01597066     0.39610
H1276       H  0.13986911  0.23996033  0.01400231     0.34500
C1277       C  0.17439911  0.90396467  0.12679276    -0.27230
C1278       C  0.22500136  0.93069848  0.12832924    -0.15300
C1279       C  0.27423424  0.90214242  0.13250210     0.35330
C1280       C  0.27184646  0.84577220  0.13472160    -0.26680
C1281       C  0.22122154  0.81891990  0.13343485    -0.15920
C1282       C  0.17207487  0.84754970  0.12941020     0.36410
N1283       N  0.12029056  0.81924375  0.12699153    -0.90170
H1284       H  0.13687593  0.92665340  0.12451168     0.17530
H1285       H  0.30927315  0.82260506  0.13689797     0.17520
N1286       N  0.32595520  0.93102531  0.13532387    -0.89200
H1287       H  0.10293110  0.82907259  0.10538883     0.34890
H1288       H  0.09437747  0.83397485  0.14501244     0.39990
H1289       H  0.33424411  0.95022028  0.11385962     0.39610
H1290       H  0.35793386  0.90370441  0.13881637     0.34500
C1291       C  0.23387529  0.37265256  0.10742265    -0.27230
C1292       C  0.27526345  0.40589630  0.12048325    -0.15300
C1293       C  0.33072532  0.38945671  0.11824313     0.35330
C1294       C  0.34295503  0.33851002  0.10499423    -0.26680
C1295       C  0.30050633  0.30284538  0.09622531    -0.15920
C1296       C  0.24626859  0.32136711  0.09497906     0.36410
N1297       N  0.20297408  0.28562770  0.08434323    -0.90170
H1298       H  0.19156276  0.38586615  0.10728303     0.17530
H1299       H  0.38476004  0.32393446  0.10602532     0.17520
N1300       N  0.37446345  0.42294844  0.13064887    -0.89200
H1301       H  0.18242117  0.30540922  0.06633426     0.34890
H1302       H  0.17511932  0.28006796  0.10308461     0.39990
H1303       H  0.40251876  0.43076093  0.11228424     0.39610
H1304       H  0.39456030  0.40074517  0.14786842     0.34500
C1305       C  0.56420416  0.24132885  0.13291303    -0.27230
C1306       C  0.59240487  0.20524781  0.11207342    -0.15300
C1307       C  0.56090944  0.16674147  0.09462421     0.35330
C1308       C  0.50517329  0.15818258  0.10270018    -0.26680
C1309       C  0.47845080  0.18967187  0.12642692    -0.15920
C1310       C  0.50753497  0.23508435  0.13942734     0.36410
N1311       N  0.48133558  0.27497007  0.15948977    -0.90170
H1312       H  0.58708185  0.27270300  0.14573530     0.17530
H1313       H  0.48267422  0.12577081  0.09053808     0.17520
N1314       N  0.58615805  0.13404372  0.07008499    -0.89200
H1315       H  0.46327184  0.25552786  0.17883338     0.34890
H1316       H  0.45031018  0.29321139  0.14666070     0.39990
H1317       H  0.59900176  0.16051261  0.05218367     0.39610
H1318       H  0.55762759  0.10681259  0.05998462     0.34500
C1319       C  0.06955830  0.17449115  0.12490768    -0.27230
C1320       C  0.09181541  0.12422481  0.13347227    -0.15300
C1321       C  0.05622795  0.07909551  0.13844072     0.35330
C1322       C  0.99962266  0.08476803  0.13358534    -0.26680
C1323       C  0.97728918  0.13455096  0.12372275    -0.15920
C1324       C  0.01324232  0.18031367  0.12015678     0.36410
N1325       N  0.99437238  0.23340904  0.11206045    -0.90170
H1326       H  0.09649851  0.20956563  0.12116003     0.17530
H1327       H  0.97291332  0.04949832  0.13711998     0.17520
N1328       N  0.07777896  0.02703250  0.14703748    -0.89200
H1329       H  0.96491409  0.24610682  0.12871088     0.34890
H1330       H  0.97704440  0.23069023  0.08972805     0.39990
H1331       H  0.10070468  0.01271613  0.12764835     0.39610
H1332       H  0.04603129  0.99843780  0.15059209     0.34500
C1333       C  0.15799771  0.10994509  0.27908790    -0.27230
C1334       C  0.10225502  0.09998012  0.27200553    -0.15300
C1335       C  0.08572195  0.10585900  0.24042036     0.35330
C1336       C  0.12454416  0.12335862  0.21729143    -0.26680
C1337       C  0.18015227  0.13341379  0.22448629    -0.15920
C1338       C  0.19671822  0.12639823  0.25609988     0.36410
N1339       N  0.25256789  0.13542243  0.26586114    -0.90170
H1340       H  0.17180254  0.10599518  0.30316132     0.17530
H1341       H  0.11155505  0.12734436  0.19330578     0.17520
N1342       N  0.02971824  0.09474162  0.23190153    -0.89200
H1343       H  0.25236546  0.16672977  0.28301052     0.34890
H1344       H  0.27734891  0.14978123  0.24737891     0.39990
H1345       H  0.02195917  0.05311202  0.23560048     0.39610
H1346       H  0.02451022  0.10076287  0.20774554     0.34500
C1347       C  0.36012938  0.04544262  0.23710751    -0.27230
C1348       C  0.38810948  0.05429845  0.20848518    -0.15300
C1349       C  0.44519186  0.04676187  0.20667292     0.35330
C1350       C  0.47418088  0.03750288  0.23475658    -0.26680
C1351       C  0.44662940  0.03664575  0.26427416    -0.15920
C1352       C  0.38849248  0.03582689  0.26488789     0.36410
N1353       N  0.35697769  0.02742986  0.29339190    -0.90170
H1354       H  0.31581474  0.04886682  0.23824717     0.17530
H1355       H  0.51863482  0.03662513  0.23394061     0.17520
N1356       N  0.47365692  0.05257677  0.17693126    -0.89200
H1357       H  0.33986531  0.06494417  0.30012707     0.34890
H1358       H  0.38151061  0.01419552  0.31175047     0.39990
H1359       H  0.45877624  0.02194439  0.16163079     0.39610
H1360       H  0.51549183  0.04507073  0.17955830     0.34500
loop_ 
_geom_bond_atom_site_label_1 
_geom_bond_atom_site_label_2 
_geom_bond_distance 
_geom_bond_site_symmetry_2 
_ccdc_geom_bond_type 
O1            C9   1.250       .  A
O1          Co21   1.981       .  S
O2           C10   1.261       .  A
O2          Co22   2.009       .  S
O3           C11   1.269       .  A
O3          Co23   1.910       .  S
O4           C12   1.227       .  A
O4          Co24   1.929       .  S
O5           C11   1.285       .  A
O5          Co22   2.035       .  S
O6           C12   1.257       .  A
O6          Co21   2.090       .  S
O7           C10   1.257       .  A
O7          Co24   1.981       .  S
O8            C9   1.274       .  A
O8          Co23   2.050       .  S
C9         C1337   1.494       .  S
C10        C1264   1.493       .  S
C11        C1295   1.434       .  S
C12        C1320   1.482       .  S
O13          C26   1.266   1_545  A
O13         Co21   1.793       .  S
O14          C27   1.247       .  A
O14         Co22   1.938       .  S
O15          C28   1.281       .  A
O15         Co23   2.024       .  S
O16          C29   1.268       .  A
O16         Co24   2.002       .  S
O17          C29   1.266       .  A
O17         Co22   1.982       .  S
O18          C28   1.274       .  A
O18         Co21   1.978       .  S
O19          C26   1.312   1_545  A
O19         Co24   2.136       .  S
O20          C27   1.267       .  A
O20         Co23   2.059       .  S
Co21         O25   1.967       .  S
Co22         O25   2.060       .  S
Co23         O25   2.072       .  S
Co24         O25   2.059       .  S
C26        C1278   1.414       .  S
C27        C1309   1.502       .  S
C28        C1348   1.471       .  S
C29        C1250   1.478   1_545  S
O30          C38   1.272       .  A
O30         Co50   1.927       .  S
O31          C39   1.252       .  A
O31         Co51   2.043       .  S
O32          C40   1.271       .  A
O32         Co52   2.068       .  S
O33          C41   1.266       .  A
O33         Co53   2.004       .  S
O34          C40   1.238       .  A
O34         Co51   1.946       .  S
O35          C41   1.243       .  A
O35         Co50   1.976       .  S
O36          C39   1.241       .  A
O36         Co53   1.964       .  S
O37          C38   1.285       .  A
O37         Co52   1.965       .  S
C38        C1292   1.452       .  S
C39        C1180   1.497       .  S
C40        C1211   1.497       .  S
C41        C1169   1.479       .  S
O42          C55   1.269       .  A
O42         Co50   2.020       .  S
O43          C56   1.271       .  A
O43         Co51   2.026       .  S
O44          C57   1.287       .  A
O44         Co52   2.098       .  S
O45          C58   1.281       .  A
O45         Co53   1.999       .  S
O46          C58   1.265       .  A
O46         Co51   1.910       .  S
O47          C57   1.243       .  A
O47         Co50   1.946       .  S
O48          C55   1.252       .  A
O48         Co53   1.963       .  S
O49          C56   1.283       .  A
O49         Co52   2.013       .  S
Co50         O54   1.989       .  S
Co51         O54   2.035       .  S
Co52         O54   2.070       .  S
Co53         O54   2.017       .  S
C55        C1197   1.473       .  S
C56        C1225   1.481       .  S
C57        C1239   1.472       .  S
C58        C1281   1.419       .  S
O59          C67   1.254       .  A
O59         Co79   1.973       .  S
O60          C68   1.255       .  A
O60         Co80   1.942       .  S
O61          C69   1.252       .  A
O61         Co81   1.989       .  S
O62          C70   1.256       .  A
O62         Co82   1.979       .  S
O63          C69   1.251       .  A
O63         Co80   1.960       .  S
O64          C70   1.256       .  A
O64         Co79   1.959       .  S
O65          C68   1.270       .  A
O65         Co82   2.033       .  S
O66          C67   1.259       .  A
O66         Co81   2.013       .  S
C67        C1323   1.493       .  S
C68        C1138   1.464       .  S
C69        C1152   1.485       .  S
C70        C1113   1.473   1_545  S
O71          C84   1.296       .  A
O71         Co79   2.077       .  S
O72          C85   1.294       .  A
O72         Co80   2.079       .  S
O73          C86   1.253       .  A
O73         Co81   1.924       .  S
O74          C87   1.268       .  A
O74         Co82   1.980       .  S
O75          C87   1.267       .  A
O75         Co80   2.006       .  S
O76          C86   1.278       .  A
O76         Co79   2.053       .  S
O77          C84   1.276       .  A
O77         Co82   1.928       .  S
O78          C85   1.259       .  A
O78         Co81   1.847       .  S
Co79         O83   2.095       .  S
Co80         O83   2.090       .  S
Co81         O83   1.959       .  S
Co82         O83   2.016       .  S
C84        C1085   1.499       .  S
C85        C1124   1.435       .  S
C86        C1096   1.464       .  S
C87        C1306   1.499       .  S
O88          C96   1.252       .  A
O88        Co108   1.971       .  S
O89          C97   1.242       .  A
O89        Co109   1.943       .  S
O90          C98   1.278       .  A
O90        Co110   2.052       .  S
O91          C99   1.291       .  A
O91        Co111   2.054       .  S
O92          C98   1.265       .  A
O92        Co109   1.964       .  S
O93          C99   1.278       .  A
O93        Co108   1.882       .  S
O94          C97   1.251       .  A
O94        Co111   2.037       .  S
O95          C96   1.274       .  A
O95        Co110   2.012       .  S
C96        C1208   1.486       .  S
C97        C1054   1.496       .  S
C98        C1068   1.496       .  S
C99        C1127   1.436       .  S
O100        C113   1.297       .  A
O100       Co108   2.100       .  S
O101        C114   1.259       .  A
O101       Co109   2.008       .  S
O102        C115   1.249       .  A
O102       Co110   1.945       .  S
O103        C116   1.267       .  A
O103       Co111   1.940       .  S
O104        C116   1.291       .  A
O104       Co109   2.077       .  S
O105        C115   1.281       .  A
O105       Co108   2.079       .  S
O106        C113   1.258       .  A
O106       Co111   1.914       .  S
O107        C114   1.249       .  A
O107       Co110   1.947       .  S
Co108       O112   2.044       .  S
Co109       O112   2.031       .  S
Co110       O112   2.001       .  S
Co111       O112   2.010       .  S
C113       C1026   1.498       .  S
C114       C1110   1.457       .  S
C115       C1043   1.505       .  S
C116       C1194   1.493       .  S
O117        C125   1.265       .  A
O117       Co137   2.018       .  S
O118        C126   1.287       .  A
O118       Co138   2.095       .  S
O119        C127   1.281       .  A
O119       Co139   2.077       .  S
O120        C128   1.278       .  A
O120       Co140   2.015       .  S
O121        C127   1.246       .  A
O121       Co138   1.965       .  S
O122        C128   1.261       .  A
O122       Co137   1.915       .  S
O123        C126   1.245       .  A
O123       Co140   1.937       .  S
O124        C125   1.283       .  A
O124       Co139   2.021       .  S
C125       C1267   1.488       .  S
C126        C959   1.488       .  S
C127       C1012   1.487       .  S
C128        C973   1.435       .  S
O129        C142   1.259       .  A
O129       Co137   2.020       .  S
O130        C143   1.298       .  A
O130       Co138   2.010       .  S
O131        C144   1.264       .  A
O131       Co139   2.037       .  S
O132        C145   1.266       .  A
O132       Co140   2.026       .  S
O133        C145   1.250       .  A
O133       Co138   1.972       .  S
O134        C144   1.235       .  A
O134       Co137   1.940       .  S
O135        C142   1.245       .  A
O135       Co140   1.952       .  S
O136        C143   1.273       .  A
O136       Co139   1.901       .  S
Co137       O141   2.063       .  S
Co138       O141   2.074       .  S
Co139       O141   2.027       .  S
Co140       O141   2.033       .  S
C142        C998   1.482       .  S
C143        C987   1.465       .  S
C144       C1166   1.483       .  S
C145        C945   1.510       .  S
O146        C154   1.291       .  A
O146       Co166   2.089       .  S
O147        C155   1.267       .  A
O147       Co167   1.977       .  S
O148        C156   1.267       .  A
O148       Co168   1.961       .  S
O149        C157   1.246       .  A
O149       Co169   1.949   1_545  S
O150        C156   1.288       .  A
O150       Co167   2.072       .  S
O151        C157   1.265   1_565  A
O151       Co166   2.037       .  S
O152        C155   1.268       .  A
O152       Co169   1.985       .  S
O153        C154   1.268       .  A
O153       Co168   1.914       .  S
C154       C1253   1.471       .  S
C155        C900   1.464       .  S
C156        C917   1.513       .  S
C157       C1015   1.471       .  S
O158        C171   1.266       .  A
O158       Co166   1.955       .  S
O159        C172   1.262       .  A
O159       Co167   1.973       .  S
O160        C173   1.291       .  A
O160       Co168   2.091       .  S
O161        C174   1.262       .  A
O161       Co169   1.966       .  S
O162        C174   1.280       .  A
O162       Co167   2.015       .  S
O163        C173   1.269       .  A
O163       Co166   1.911       .  S
O164        C171   1.289       .  A
O164       Co169   2.079       .  S
O165        C172   1.268       .  A
O165       Co168   2.012       .  S
Co166       O170   2.026       .  S
Co167       O170   2.024       .  S
Co168       O170   1.999       .  S
Co169       O170   2.011       .  S
C171        C931   1.508       .  S
C172       C1001   1.484       .  S
C173       C1183   1.490       .  S
C174        C886   1.479       .  S
O175        C183   1.278       .  A
O175       Co195   1.988       .  S
O176        C184   1.269       .  A
O176       Co196   2.083       .  S
O177        C185   1.291       .  A
O177       Co197   2.054       .  S
O178        C186   1.262       .  A
O178       Co198   2.006       .  S
O179        C185   1.272       .  A
O179       Co196   1.966       .  S
O180        C186   1.242       .  A
O180       Co195   1.961       .  S
O181        C184   1.221       .  A
O181       Co198   1.923       .  S
O182        C183   1.262       .  A
O182       Co197   2.002       .  S
C183       C1099   1.476       .  S
C184        C844   1.505       .  S
C185        C875   1.494       .  S
C186        C984   1.447       .  S
O187        C200   1.288       .  A
O187       Co195   2.048       .  S
O188        C201   1.267       .  A
O188       Co196   2.012       .  S
O189        C202   1.282       .  A
O189       Co197   2.002       .  S
O190        C203   1.282       .  A
O190       Co198   2.076       .  S
O191        C203   1.245       .  A
O191       Co196   1.919       .  S
O192        C202   1.270       .  A
O192       Co195   2.016       .  S
O193        C200   1.270       .  A
O193       Co198   1.967       .  S
O194        C201   1.243       .  A
O194       Co197   1.911       .  S
Co195       O199   2.025       .  S
Co196       O199   2.083       .  S
Co197       O199   2.035       .  S
Co198       O199   2.033       .  S
C200        C858   1.483       .  S
C201        C970   1.446       .  S
C202       C1029   1.509       .  S
C203        C833   1.489       .  S
O204        C212   1.277       .  A
O204       Co224   1.937       .  S
O205        C213   1.265       .  A
O205       Co225   1.972       .  S
O206        C214   1.270       .  A
O206       Co226   2.049       .  S
O207        C215   1.279       .  A
O207       Co227   2.046       .  S
O208        C214   1.248       .  A
O208       Co225   1.947       .  S
O209        C215   1.267       .  A
O209       Co224   1.974       .  S
O210        C213   1.277       .  A
O210       Co227   2.024       .  S
O211        C212   1.287       .  A
O211       Co226   2.074       .  S
C212       C1040   1.489       .  S
C213        C816   1.478       .  S
C214        C861   1.499       .  S
C215        C928   1.504       .  S
O216        C229   1.280       .  A
O216       Co224   2.042       .  S
O217        C230   1.291       .  A
O217       Co225   2.076       .  S
O218        C231   1.272       .  A
O218       Co226   1.959       .  S
O219        C232   1.267       .  A
O219       Co227   1.996       .  S
O220        C232   1.262       .  A
O220       Co225   1.986       .  S
O221        C231   1.284       .  A
O221       Co224   2.075       .  S
O222        C229   1.262       .  A
O222       Co227   1.970       .  S
O223        C230   1.268       .  A
O223       Co226   1.950       .  S
Co224       O228   2.018       .  S
Co225       O228   2.023       .  S
Co226       O228   2.039       .  S
Co227       O228   2.036       .  S
C229        C872   1.493   1_565  S
C230        C914   1.513       .  S
C231       C1082   1.512       .  S
C232        C802   1.485       .  S
O233        C241   1.234       .  A
O233       Co253   1.939       .  S
O234        C242   1.233       .  A
O234       Co254   1.942   1_455  S
O235        C243   1.246       .  A
O235       Co255   1.936       .  S
O236        C244   1.251       .  A
O236       Co256   1.967       .  S
O237        C243   1.266       .  A
O237       Co254   2.032       .  S
O238        C244   1.269       .  A
O238       Co253   2.034       .  S
O239        C242   1.258       .  A
O239       Co256   2.032       .  S
O240        C241   1.263   1_655  A
O240       Co255   2.094       .  S
C241        C942   1.504       .  S
C242        C732   1.482       .  S
C243        C760   1.477       .  S
C244        C788   1.489       .  S
O245        C258   1.247       .  A
O245       Co253   1.939       .  S
O246        C259   1.249       .  A
O246       Co254   1.973       .  S
O247        C260   1.227       .  A
O247       Co255   1.946       .  S
O248        C261   1.236       .  A
O248       Co256   1.945   1_655  S
O249        C261   1.263       .  A
O249       Co254   2.055       .  S
O250        C260   1.264       .  A
O250       Co253   2.080   1_655  S
O251        C258   1.261       .  A
O251       Co256   2.012       .  S
O252        C259   1.264       .  A
O252       Co255   2.032       .  S
Co253       O257   2.143   1_455  S
Co254       O257   2.139       .  S
Co255       O257   2.129       .  S
Co256       O257   2.141   1_455  S
C258        C746   1.474       .  S
C259        C774   1.475       .  S
C260        C847   1.502       .  S
C261        C718   1.481       .  S
O262        C270   1.262   1_455  A
O262       Co282   2.044       .  S
O263        C271   1.284       .  A
O263       Co283   2.077       .  S
O264        C272   1.258       .  A
O264       Co284   1.941       .  S
O265        C273   1.271       .  A
O265       Co285   1.918       .  S
O266        C272   1.269       .  A
O266       Co283   2.007       .  S
O267        C273   1.288       .  A
O267       Co282   2.046       .  S
O268        C271   1.257       .  A
O268       Co285   1.955   1_655  S
O269        C270   1.249       .  A
O269       Co284   1.970       .  S
C270        C819   1.494       .  S
C271        C676   1.501       .  S
C272        C690   1.451       .  S
C273        C749   1.465       .  S
O274        C287   1.261       .  A
O274       Co282   1.892       .  S
O275        C288   1.254   1_565  A
O275       Co283   1.951       .  S
O276        C289   1.284       .  A
O276       Co284   2.058   1_455  S
O277        C290   1.268       .  A
O277       Co285   2.071       .  S
O278        C290   1.243       .  A
O278       Co283   1.952   1_455  S
O279        C289   1.261       .  A
O279       Co282   1.963       .  S
O280        C287   1.290       .  A
O280       Co285   2.064       .  S
O281        C288   1.268   1_565  A
O281       Co284   2.016       .  S
Co282       O286   2.005   1_455  S
Co283       O286   2.014       .  S
Co284       O286   2.033       .  S
Co285       O286   2.038   1_455  S
C287        C707   1.463       .  S
C288        C763   1.460       .  S
C289        C889   1.488       .  S
C290        C665   1.497       .  S
O291        C299   1.259       .  A
O291       Co311   1.969       .  S
O292        C300   1.277       .  A
O292       Co312   2.058       .  S
O293        C301   1.259       .  A
O293       Co313   1.971       .  S
O294        C302   1.261       .  A
O294       Co314   1.916       .  S
O295        C301   1.272       .  A
O295       Co312   2.031       .  S
O296        C302   1.294       .  A
O296       Co311   2.083       .  S
O297        C300   1.275       .  A
O297       Co314   1.954       .  S
O298        C299   1.283       .  A
O298       Co313   2.040       .  S
C299        C956   1.501       .  S
C300        C609   1.485       .  S
C301        C634   1.490       .  S
C302        C791   1.488       .  S
O303        C316   1.258       .  A
O303       Co311   1.969       .  S
O304        C317   1.262       .  A
O304       Co312   1.915       .  S
O305        C318   1.265       .  A
O305       Co313   1.964       .  S
O306        C319   1.275       .  A
O306       Co314   2.030       .  S
O307        C319   1.277       .  A
O307       Co312   1.967       .  S
O308        C318   1.279       .  A
O308       Co311   2.026       .  S
O309        C316   1.278       .  A
O309       Co314   2.046       .  S
O310        C317   1.296       .  A
O310       Co313   2.086       .  S
Co311       O315   2.016       .  S
Co312       O315   2.027       .  S
Co313       O315   1.996       .  S
Co314       O315   2.003       .  S
C316        C648   1.508       .  S
C317        C777   1.502       .  S
C318        C830   1.478       .  S
C319        C623   1.491       .  S
O320        C328   1.271       .  A
O320       Co340   2.013       .  S
O321        C329   1.275       .  A
O321       Co341   2.044       .  S
O322        C330   1.253   1_565  A
O322       Co342   1.958       .  S
O323        C331   1.264       .  A
O323       Co343   1.931       .  S
O324        C330   1.280   1_565  A
O324       Co341   2.064       .  S
O325        C331   1.284       .  A
O325       Co340   2.026       .  S
O326        C329   1.274       .  A
O326       Co343   1.959       .  S
O327        C328   1.262       .  A
O327       Co342   1.974       .  S
C328        C903   1.471       .  S
C329        C578   1.477       .  S
C330        C651   1.486       .  S
C331        C704   1.468       .  S
O332        C345   1.266       .  A
O332       Co340   1.989       .  S
O333        C346   1.262       .  A
O333       Co341   1.920       .  S
O334        C347   1.271       .  A
O334       Co342   2.005       .  S
O335        C348   1.282       .  A
O335       Co343   2.067       .  S
O336        C348   1.277       .  A
O336       Co341   1.967       .  S
O337        C347   1.274       .  A
O337       Co340   1.988       .  S
O338        C345   1.271       .  A
O338       Co343   2.019       .  S
O339        C346   1.281       .  A
O339       Co342   2.036       .  S
Co340       O344   2.012       .  S
Co341       O344   2.006       .  S
Co342       O344   2.009       .  S
Co343       O344   2.011       .  S
C345        C637   1.485       .  S
C346        C693   1.473       .  S
C347        C805   1.488       .  S
C348        C592   1.523       .  S
O349        C357   1.281       .  A
O349       Co369   1.972   1_455  S
O350        C358   1.281       .  A
O350       Co370   2.059       .  S
O351        C359   1.276       .  A
O351       Co371   2.032       .  S
O352        C360   1.261   1_545  A
O352       Co372   1.990       .  S
O353        C359   1.264       .  A
O353       Co370   1.955       .  S
O354        C360   1.262   1_445  A
O354       Co369   2.001   1_455  S
O355        C358   1.256       .  A
O355       Co372   1.948   1_455  S
O356        C357   1.278       .  A
O356       Co371   2.034       .  S
C357       C1334   1.500       .  S
C358        C662   1.485       .  S
C359        C536   1.483       .  S
C360        C550   1.475   1_655  S
O361        C374   1.288       .  A
O361       Co369   2.052       .  S
O362        C375   1.267       .  A
O362       Co370   2.042       .  S
O363        C376   1.268   1_455  A
O363       Co371   1.940       .  S
O364        C377   1.260       .  A
O364       Co372   2.052       .  S
O365        C377   1.228       .  A
O365       Co370   1.923   1_655  S
O366        C376   1.279       .  A
O366       Co369   2.051       .  S
O367        C374   1.276       .  A
O367       Co372   1.975       .  S
O368        C375   1.250   1_655  A
O368       Co371   1.999   1_655  S
Co369       O373   2.039   1_655  S
Co370       O373   2.053       .  S
Co371       O373   2.017       .  S
Co372       O373   2.098   1_655  S
C374        C522   1.494       .  S
C375        C564   1.495   1_455  S
C376       C1155   1.467       .  S
C377        C735   1.483       .  S
O378        C386   1.268   1_655  A
O378       Co398   1.923       .  S
O379        C387   1.273   1_455  A
O379       Co399   2.017       .  S
O380        C388   1.272       .  A
O380       Co400   2.030   1_455  S
O381        C389   1.295       .  A
O381       Co401   2.095       .  S
O382        C388   1.260       .  A
O382       Co399   1.961       .  S
O383        C389   1.259       .  A
O383       Co398   1.929       .  S
O384        C387   1.260       .  A
O384       Co401   1.969       .  S
O385        C386   1.282       .  A
O385       Co400   2.064   1_455  S
C386       C1222   1.473       .  S
C387        C721   1.477       .  S
C388        C508   1.487       .  S
C389        C567   1.504       .  S
O390        C403   1.266       .  A
O390       Co398   2.038       .  S
O391        C404   1.285       .  A
O391       Co399   2.065       .  S
O392        C405   1.273       .  A
O392       Co400   1.953       .  S
O393        C406   1.270       .  A
O393       Co401   1.999       .  S
O394        C406   1.271       .  A
O394       Co399   2.010   1_655  S
O395        C405   1.285       .  A
O395       Co398   2.064       .  S
O396        C403   1.243       .  A
O396       Co401   1.939       .  S
O397        C404   1.260   1_655  A
O397       Co400   1.934       .  S
Co398       O402   2.031       .  S
Co399       O402   2.023   1_455  S
Co400       O402   2.023       .  S
Co401       O402   2.003       .  S
C403        C494   1.486       .  S
C404        C553   1.493       .  S
C405       C1071   1.498       .  S
C406        C679   1.488       .  S
O407        C415   1.293       .  A
O407       Co427   2.079       .  S
O408        C416   1.273       .  A
O408       Co428   2.012       .  S
O409        C417   1.257   1_545  A
O409       Co429   1.929       .  S
O410        C418   1.257       .  A
O410       Co430   1.968       .  S
O411        C417   1.286   1_545  A
O411       Co428   2.068       .  S
O412        C418   1.267       .  A
O412       Co427   2.026       .  S
O413        C416   1.263       .  A
O413       Co430   1.975       .  S
O414        C415   1.270       .  A
O414       Co429   1.922       .  S
C415       C1351   1.483       .  S
C416        C581   1.491   1_545  S
C417        C466   1.480       .  S
C418        C539   1.487       .  S
O419        C432   1.265       .  A
O419       Co427   1.952       .  S
O420        C433   1.251       .  A
O420       Co428   1.956       .  S
O421        C434   1.278       .  A
O421       Co429   2.038       .  S
O422        C435   1.274       .  A
O422       Co430   2.023       .  S
O423        C435   1.257       .  A
O423       Co428   1.970       .  S
O424        C434   1.273       .  A
O424       Co427   1.951       .  S
O425        C432   1.280       .  A
O425       Co430   2.035       .  S
O426        C433   1.269       .  A
O426       Co429   2.051       .  S
Co427       O431   2.028       .  S
Co428       O431   2.011       .  S
Co429       O431   2.015       .  S
Co430       O431   2.027       .  S
C432        C483   1.480       .  S
C433        C525   1.499       .  S
C434       C1141   1.482       .  S
C435        C620   1.475       .  S
O436        C444   1.251       .  A
O436       Co456   1.941       .  S
O437        C445   1.232       .  A
O437       Co457   1.967       .  S
O438        C446   1.263       .  A
O438       Co458   1.950       .  S
O439        C447   1.254       .  A
O439       Co459   1.970       .  S
O440        C446   1.283       .  A
O440       Co457   2.050       .  S
O441        C447   1.258       .  A
O441       Co456   2.000       .  S
O442        C445   1.249       .  A
O442       Co459   2.049       .  S
O443        C444   1.277       .  A
O443       Co458   2.055       .  S
C444       C1236   1.483       .  S
C445        C606   1.505       .  S
C446        C480   1.473       .  S
C447        C511   1.484       .  S
O448        C461   1.261       .  A
O448       Co456   1.966       .  S
O449        C462   1.264       .  A
O449       Co457   1.988       .  S
O450        C463   1.231       .  A
O450       Co458   1.944       .  S
O451        C464   1.279       .  A
O451       Co459   2.035       .  S
O452        C464   1.281       .  A
O452       Co457   1.972       .  S
O453        C463   1.249       .  A
O453       Co456   2.037       .  S
O454        C461   1.270       .  A
O454       Co459   2.015       .  S
O455        C462   1.260       .  A
O455       Co458   2.007       .  S
Co456       O460   2.129       .  S
Co457       O460   1.975       .  S
Co458       O460   2.097       .  S
Co459       O460   2.208       .  S
C461        C469   1.487       .  S
C462        C497   1.491       .  S
C463       C1057   1.477       .  S
C464        C595   1.500       .  S
C465        C466   1.392       .  A
C465        C470   1.404       .  A
C465        H472   1.067       .  S
C466        C467   1.412       .  A
C467        C468   1.404       .  A
C467        N474   1.432       .  S
C468        C469   1.404       .  A
C468        H473   1.084       .  S
C469        C470   1.416       .  A
C470        N471   1.435       .  S
N471        H475   1.043       .  S
N471        H476   1.041       .  S
N474        H477   1.046       .  S
N474        H478   1.046       .  S
C479        C480   1.404       .  A
C479        C484   1.396       .  A
C479        H486   1.085       .  S
C480        C481   1.414       .  A
C481        C482   1.399       .  A
C481        N488   1.436       .  S
C482        C483   1.406       .  A
C482        H487   1.084       .  S
C483        C484   1.414       .  A
C484        N485   1.432       .  S
N485        H489   1.045       .  S
N485        H490   1.045       .  S
N488        H491   1.040       .  S
N488        H492   1.045       .  S
C493        C494   1.398       .  A
C493        C498   1.404       .  A
C493        H500   1.084       .  S
C494        C495   1.420       .  A
C495        C496   1.397       .  A
C495        N502   1.434       .  S
C496        C497   1.397       .  A
C496        H501   1.084       .  S
C497        C498   1.429       .  A
C498        N499   1.431       .  S
N499        H503   1.046       .  S
N499        H504   1.041       .  S
N502        H505   1.046       .  S
N502        H506   1.046       .  S
C507        C508   1.405       .  A
C507        C512   1.399       .  A
C507        H514   1.084       .  S
C508        C509   1.413       .  A
C509        C510   1.413       .  A
C509        N516   1.436       .  S
C510        C511   1.408       .  A
C510        H515   1.083       .  S
C511        C512   1.413       .  A
C512        N513   1.439       .  S
N513        H517   1.046       .  S
N513        H518   1.045       .  S
N516        H519   1.046       .  S
N516        H520   1.046       .  S
C521        C522   1.412       .  A
C521        C526   1.421       .  A
C521        H528   1.083       .  S
C522        C523   1.411       .  A
C523        C524   1.403       .  A
C523        N530   1.439       .  S
C524        C525   1.409       .  A
C524        H529   1.084       .  S
C525        C526   1.413       .  A
C526        N527   1.436   1_545  S
N527        H531   1.046       .  S
N527        H532   1.045   1_565  S
N530        H533   1.045       .  S
N530        H534   1.046       .  S
C535        C536   1.402       .  A
C535        C540   1.397       .  A
C535        H542   1.085       .  S
C536        C537   1.421       .  A
C537        C538   1.411       .  A
C537        N544   1.437       .  S
C538        C539   1.407       .  A
C538        H543   1.083       .  S
C539        C540   1.411       .  A
C540        N541   1.433       .  S
N541        H545   1.046       .  S
N541        H546   1.046       .  S
N544        H547   1.041       .  S
N544        H548   1.045       .  S
C549        C550   1.406       .  A
C549        C554   1.416       .  A
C549        H556   1.084       .  S
C550        C551   1.412   1_455  A
C551        C552   1.392       .  A
C551        N558   1.439       .  S
C552        C553   1.408   1_655  A
C552        H557   1.084       .  S
C553        C554   1.416       .  A
C554        N555   1.437       .  S
N555        H559   1.045       .  S
N555        H560   1.045       .  S
N558        H561   1.043       .  S
N558        H562   1.046       .  S
C563        C564   1.398   1_455  A
C563        C568   1.409       .  A
C563        H570   1.084       .  S
C564        C565   1.419       .  A
C565        C566   1.419       .  A
C565        N572   1.437       .  S
C566        C567   1.406       .  A
C566        H571   1.083       .  S
C567        C568   1.426   1_655  A
C568        N569   1.440       .  S
N569        H573   1.046       .  S
N569        H574   1.045       .  S
N572        H575   1.044       .  S
N572        H576   1.046       .  S
C577        C578   1.399       .  A
C577        C582   1.395       .  A
C577        H584   1.074       .  S
C578        C579   1.415       .  A
C579        C580   1.416       .  A
C579        N586   1.436       .  S
C580        C581   1.414       .  A
C580        H585   1.083   1_565  S
C581        C582   1.408       .  A
C582        N583   1.440       .  S
N583        H587   1.044       .  S
N583        H588   1.046   1_565  S
N586        H589   1.045       .  S
N586        H590   1.045       .  S
C591        C592   1.416       .  A
C591        C596   1.407       .  A
C591        H598   1.079       .  S
C592        C593   1.418       .  A
C593        C594   1.419       .  A
C593        N600   1.430       .  S
C594        C595   1.415       .  A
C594        H599   1.084       .  S
C595        C596   1.413       .  A
C596        N597   1.439       .  S
N597        H601   1.045       .  S
N597        H602   1.042       .  S
N600        H603   1.045       .  S
N600        H604   1.042       .  S
C605        C606   1.409       .  A
C605        C610   1.423       .  A
C605        H612   1.083       .  S
C606        C607   1.414       .  A
C607        C608   1.396       .  A
C607        N614   1.428       .  S
C608        C609   1.391       .  A
C608        H613   1.083       .  S
C609        C610   1.425       .  A
C610        N611   1.436       .  S
N611        H615   1.046       .  S
N611        H616   1.045       .  S
N614        H617   1.041       .  S
N614        H618   1.045       .  S
C619        C620   1.407       .  A
C619        C624   1.415       .  A
C619        H626   1.077       .  S
C620        C621   1.400       .  A
C621        C622   1.399       .  A
C621        N628   1.438       .  S
C622        C623   1.412       .  A
C622        H627   1.080       .  S
C623        C624   1.407       .  A
C624        N625   1.433       .  S
N625        H629   1.045       .  S
N625        H630   1.045       .  S
N628        H631   1.045       .  S
N628        H632   1.043       .  S
C633        C634   1.410       .  A
C633        C638   1.409       .  A
C633        H640   1.084       .  S
C634        C635   1.411       .  A
C635        C636   1.410       .  A
C635        N642   1.436       .  S
C636        C637   1.406       .  A
C636        H641   1.084       .  S
C637        C638   1.409       .  A
C638        N639   1.438       .  S
N639        H643   1.046       .  S
N639        H644   1.045       .  S
N642        H645   1.043       .  S
N642        H646   1.046       .  S
C647        C648   1.406       .  A
C647        C652   1.417       .  A
C647        H654   1.083       .  S
C648        C649   1.427       .  A
C649        C650   1.411       .  A
C649        N656   1.439       .  S
C650        C651   1.398       .  A
C650        H655   1.084       .  S
C651        C652   1.417       .  A
C652        N653   1.439       .  S
N653        H657   1.046       .  S
N653        H658   1.045       .  S
N656        H659   1.045       .  S
N656        H660   1.046       .  S
C661        C662   1.395       .  A
C661        C666   1.395   1_545  A
C661        H668   1.082   1_455  S
C662        C663   1.421   1_545  A
C663        C664   1.423       .  A
C663        N670   1.436       .  S
C664        C665   1.410       .  A
C664        H669   1.083       .  S
C665        C666   1.415       .  A
C666        N667   1.432   1_455  S
N667        H671   1.046       .  S
N667        H672   1.046   1_565  S
N670        H673   1.045   1_565  S
N670        H674   1.045       .  S
C675        C676   1.408       .  A
C675        C680   1.413       .  A
C675        H682   1.084       .  S
C676        C677   1.419       .  A
C677        C678   1.405       .  A
C677        N684   1.433       .  S
C678        C679   1.400       .  A
C678        H683   1.084       .  S
C679        C680   1.418       .  A
C680        N681   1.436       .  S
N681        H685   1.046       .  S
N681        H686   1.043       .  S
N684        H687   1.045       .  S
N684        H688   1.045       .  S
C689        C690   1.400       .  A
C689        C694   1.403       .  A
C689        H696   1.084   1_565  S
C690        C691   1.401       .  A
C691        C692   1.391       .  A
C691        N698   1.439       .  S
C692        C693   1.408       .  A
C692        H697   1.083       .  S
C693        C694   1.415       .  A
C694        N695   1.438   1_565  S
N695        H699   1.046       .  S
N695        H700   1.046       .  S
N698        H701   1.045       .  S
N698        H702   1.046       .  S
C703        C704   1.403       .  A
C703        C708   1.398       .  A
C703        H710   1.083       .  S
C704        C705   1.411       .  A
C705        C706   1.393       .  A
C705        N712   1.433       .  S
C706        C707   1.400       .  A
C706        H711   1.084       .  S
C707        C708   1.412       .  A
C708        N709   1.439       .  S
N709        H713   1.046       .  S
N709        H714   1.045       .  S
N712        H715   1.046       .  S
N712        H716   1.045       .  S
C717        C718   1.404       .  A
C717        C722   1.412   1_655  A
C717        H724   1.084       .  S
C718        C719   1.413       .  A
C719        C720   1.402       .  A
C719        N726   1.436       .  S
C720        C721   1.401       .  A
C720        H725   1.084       .  S
C721        C722   1.411   1_655  A
C722        N723   1.431       .  S
N723        H727   1.046       .  S
N723        H728   1.045       .  S
N726        H729   1.045       .  S
N726        H730   1.045       .  S
C731        C732   1.417   1_655  A
C731        C736   1.403       .  A
C731        H738   1.084       .  S
C732        C733   1.407       .  A
C733        C734   1.391       .  A
C733        N740   1.433       .  S
C734        C735   1.414   1_455  A
C734        H739   1.084       .  S
C735        C736   1.406       .  A
C736        N737   1.432       .  S
N737        H741   1.043       .  S
N737        H742   1.045       .  S
N740        H743   1.045       .  S
N740        H744   1.044       .  S
C745        C746   1.405       .  A
C745        C750   1.406       .  A
C745        H752   1.084       .  S
C746        C747   1.415   1_455  A
C747        C748   1.394       .  A
C747        N754   1.440       .  S
C748        C749   1.399   1_655  A
C748        H753   1.084       .  S
C749        C750   1.410       .  A
C750        N751   1.438       .  S
N751        H755   1.046       .  S
N751        H756   1.045       .  S
N754        H757   1.046       .  S
N754        H758   1.046       .  S
C759        C760   1.408       .  A
C759        C764   1.400       .  A
C759        H766   1.084   1_655  S
C760        C761   1.412       .  A
C761        C762   1.405       .  A
C761        N768   1.437       .  S
C762        C763   1.402       .  A
C762        H767   1.084       .  S
C763        C764   1.402       .  A
C764        N765   1.437   1_655  S
N765        H769   1.046       .  S
N765        H770   1.045       .  S
N768        H771   1.045       .  S
N768        H772   1.046       .  S
C773        C774   1.405       .  A
C773        C778   1.414       .  A
C773        H780   1.084       .  S
C774        C775   1.399       .  A
C775        C776   1.400       .  A
C775        N782   1.439       .  S
C776        C777   1.417       .  A
C776        H781   1.084       .  S
C777        C778   1.426       .  A
C778        N779   1.436       .  S
N779        H783   1.046       .  S
N779        H784   1.037       .  S
N782        H785   1.046       .  S
N782        H786   1.046       .  S
C787        C788   1.413       .  A
C787        C792   1.411       .  A
C787        H794   1.084       .  S
C788        C789   1.419       .  A
C789        C790   1.398       .  A
C789        N796   1.441       .  S
C790        C791   1.406       .  A
C790        H795   1.085       .  S
C791        C792   1.409       .  A
C792        N793   1.431       .  S
N793        H797   1.046       .  S
N793        H798   1.045       .  S
N796        H799   1.039       .  S
N796        H800   1.046       .  S
C801        C802   1.408       .  A
C801        C806   1.401       .  A
C801        H808   1.078       .  S
C802        C803   1.405       .  A
C803        C804   1.407       .  A
C803        N810   1.437       .  S
C804        C805   1.412       .  A
C804        H809   1.077       .  S
C805        C806   1.414       .  A
C806        N807   1.440       .  S
N807        H811   1.046       .  S
N807        H812   1.041       .  S
N810        H813   1.045       .  S
N810        H814   1.045       .  S
C815        C816   1.395       .  A
C815        C820   1.405       .  A
C815        H822   1.084       .  S
C816        C817   1.411       .  A
C817        C818   1.412       .  A
C817        N824   1.436       .  S
C818        C819   1.407       .  A
C818        H823   1.084       .  S
C819        C820   1.413       .  A
C820        N821   1.423   1_655  S
N821        H825   1.045       .  S
N821        H826   1.044       .  S
N824        H827   1.041       .  S
N824        H828   1.046       .  S
C829        C830   1.394       .  A
C829        C834   1.392       .  A
C829        H836   1.086       .  S
C830        C831   1.412       .  A
C831        C832   1.418       .  A
C831        N838   1.427       .  S
C832        C833   1.402       .  A
C832        H837   1.079       .  S
C833        C834   1.414       .  A
C834        N835   1.424       .  S
N835        H839   1.046       .  S
N835        H840   1.046       .  S
N838        H841   1.045       .  S
N838        H842   1.045       .  S
C843        C844   1.425       .  A
C843        C848   1.405       .  A
C843        H850   1.083       .  S
C844        C845   1.410       .  A
C845        C846   1.407       .  A
C845        N852   1.439       .  S
C846        C847   1.417       .  A
C846        H851   1.075       .  S
C847        C848   1.406       .  A
C848        N849   1.439       .  S
N849        H853   1.046       .  S
N849        H854   1.043       .  S
N852        H855   1.041       .  S
N852        H856   1.046       .  S
C857        C858   1.410       .  A
C857        C862   1.414       .  A
C857        H864   1.084       .  S
C858        C859   1.409       .  A
C859        C860   1.395       .  A
C859        N866   1.439       .  S
C860        C861   1.411       .  A
C860        H865   1.078       .  S
C861        C862   1.421       .  A
C862        N863   1.437       .  S
N863        H867   1.046       .  S
N863        H868   1.040       .  S
N866        H869   1.040       .  S
N866        H870   1.046       .  S
C871        C872   1.409       .  A
C871        C876   1.408       .  A
C871        H878   1.085       .  S
C872        C873   1.417       .  A
C873        C874   1.409       .  A
C873        N880   1.438       .  S
C874        C875   1.411       .  A
C874        H879   1.085       .  S
C875        C876   1.418       .  A
C876        N877   1.439       .  S
N877        H881   1.046       .  S
N877        H882   1.040       .  S
N880        H883   1.042       .  S
N880        H884   1.045       .  S
C885        C886   1.411       .  A
C885        C890   1.405       .  A
C885        H892   1.080       .  S
C886        C887   1.401       .  A
C887        C888   1.404       .  A
C887        N894   1.438       .  S
C888        C889   1.412       .  A
C888        H893   1.073       .  S
C889        C890   1.412       .  A
C890        N891   1.437   1_565  S
N891        H895   1.046   1_545  S
N891        H896   1.042       .  S
N894        H897   1.046       .  S
N894        H898   1.045       .  S
C899        C900   1.407       .  A
C899        C904   1.395       .  A
C899        H906   1.085       .  S
C900        C901   1.401       .  A
C901        C902   1.406       .  A
C901        N908   1.436       .  S
C902        C903   1.405       .  A
C902        H907   1.077       .  S
C903        C904   1.405       .  A
C904        N905   1.429       .  S
N905        H909   1.042       .  S
N905        H910   1.045       .  S
N908        H911   1.045   1_565  S
N908        H912   1.045       .  S
C913        C914   1.409       .  A
C913        C918   1.406       .  A
C913        H920   1.083       .  S
C914        C915   1.418       .  A
C915        C916   1.424       .  A
C915        N922   1.436       .  S
C916        C917   1.413       .  A
C916        H921   1.083       .  S
C917        C918   1.419       .  A
C918        N919   1.438       .  S
N919        H923   1.046       .  S
N919        H924   1.045       .  S
N922        H925   1.046       .  S
N922        H926   1.045       .  S
C927        C928   1.411       .  A
C927        C932   1.419   1_655  A
C927        H934   1.083       .  S
C928        C929   1.414       .  A
C929        C930   1.410   1_655  A
C929        N936   1.438       .  S
C930        C931   1.411       .  A
C930        H935   1.083       .  S
C931        C932   1.417       .  A
C932        N933   1.437   1_565  S
N933        H937   1.046       .  S
N933        H938   1.043       .  S
N936        H939   1.045       .  S
N936        H940   1.046   1_655  S
C941        C942   1.412       .  A
C941        C946   1.428       .  A
C941        H948   1.079       .  S
C942        C943   1.412       .  A
C943        C944   1.389       .  A
C943        N950   1.432       .  S
C944        C945   1.396       .  A
C944        H949   1.067       .  S
C945        C946   1.416       .  A
C946        N947   1.432       .  S
N947        H951   1.046       .  S
N947        H952   1.045       .  S
N950        H953   1.046       .  S
N950        H954   1.045       .  S
C955        C956   1.419       .  A
C955        C960   1.411       .  A
C955        H962   1.083       .  S
C956        C957   1.403       .  A
C957        C958   1.410       .  A
C957        N964   1.437       .  S
C958        C959   1.417       .  A
C958        H963   1.079       .  S
C959        C960   1.403       .  A
C960        N961   1.438       .  S
N961        H965   1.046       .  S
N961        H966   1.045       .  S
N964        H967   1.045       .  S
N964        H968   1.046       .  S
C969        C970   1.397       .  A
C969        C974   1.399       .  A
C969        H976   1.084       .  S
C970        C971   1.414       .  A
C971        C972   1.384       .  A
C971        N978   1.436       .  S
C972        C973   1.389       .  A
C972        H977   1.085       .  S
C973        C974   1.409       .  A
C974        N975   1.438       .  S
N975        H979   1.046       .  S
N975        H980   1.046       .  S
N978        H981   1.046       .  S
N978        H982   1.046       .  S
C983        C984   1.410       .  A
C983        C988   1.403       .  A
C983        H990   1.084       .  S
C984        C985   1.399       .  A
C985        C986   1.380   1_655  A
C985        N992   1.440       .  S
C986        C987   1.414       .  A
C986        H991   1.085       .  S
C987        C988   1.408   1_455  A
C988        N989   1.437   1_655  S
N989        H993   1.046   1_455  S
N989        H994   1.043       .  S
N992        H995   1.042       .  S
N992        H996   1.046       .  S
C997        C998   1.404       .  A
C997       C1002   1.400       .  A
C997       H1004   1.084       .  S
C998        C999   1.411       .  A
C999       C1000   1.411       .  A
C999       N1006   1.437       .  S
C1000      C1001   1.409       .  A
C1000      H1005   1.084       .  S
C1001      C1002   1.413       .  A
C1002      N1003   1.439       .  S
N1003      H1007   1.046       .  S
N1003      H1008   1.045       .  S
N1006      H1009   1.045       .  S
N1006      H1010   1.046       .  S
C1011      C1012   1.410       .  A
C1011      C1016   1.413       .  A
C1011      H1018   1.077       .  S
C1012      C1013   1.413       .  A
C1013      C1014   1.399       .  A
C1013      N1020   1.439       .  S
C1014      C1015   1.402       .  A
C1014      H1019   1.085       .  S
C1015      C1016   1.405       .  A
C1016      N1017   1.437       .  S
N1017      H1021   1.045       .  S
N1017      H1022   1.046       .  S
N1020      H1023   1.046       .  S
N1020      H1024   1.046       .  S
C1025      C1026   1.416       .  A
C1025      C1030   1.421       .  A
C1025      H1032   1.083       .  S
C1026      C1027   1.403       .  A
C1027      C1028   1.408   1_554  A
C1027      N1034   1.438   1_554  S
C1028      C1029   1.419       .  A
C1028      H1033   1.080       .  S
C1029      C1030   1.411   1_556  A
C1030      N1031   1.436       .  S
N1031      H1035   1.046       .  S
N1031      H1036   1.045       .  S
N1034      H1037   1.045   1_556  S
N1034      H1038   1.045       .  S
C1039      C1040   1.395   1_554  A
C1039      C1044   1.407       .  A
C1039      H1046   1.084       .  S
C1040      C1041   1.417       .  A
C1041      C1042   1.418   1_556  A
C1041      N1048   1.435       .  S
C1042      C1043   1.404       .  A
C1042      H1047   1.083       .  S
C1043      C1044   1.429       .  A
C1044      N1045   1.440       .  S
N1045      H1049   1.046       .  S
N1045      H1050   1.046       .  S
N1048      H1051   1.039       .  S
N1048      H1052   1.046       .  S
C1053      C1054   1.410       .  A
C1053      C1058   1.389       .  A
C1053      H1060   1.082       .  S
C1054      C1055   1.424       .  A
C1055      C1056   1.414       .  A
C1055      N1062   1.439       .  S
C1056      C1057   1.406       .  A
C1056      H1061   1.084       .  S
C1057      C1058   1.409       .  A
C1058      N1059   1.435       .  S
N1059      H1063   1.043       .  S
N1059      H1064   1.045       .  S
N1062      H1065   1.041       .  S
N1062      H1066   1.046       .  S
C1067      C1068   1.410       .  A
C1067      C1072   1.423       .  A
C1067      H1074   1.083       .  S
C1068      C1069   1.413       .  A
C1069      C1070   1.401       .  A
C1069      N1076   1.439       .  S
C1070      C1071   1.406       .  A
C1070      H1075   1.084       .  S
C1071      C1072   1.417       .  A
C1072      N1073   1.437       .  S
N1073      H1077   1.045       .  S
N1073      H1078   1.044   1_655  S
N1076      H1079   1.046       .  S
N1076      H1080   1.046       .  S
C1081      C1082   1.412   1_554  A
C1081      C1086   1.423       .  A
C1081      H1088   1.083       .  S
C1082      C1083   1.420       .  A
C1083      C1084   1.397   1_566  A
C1083      N1090   1.431   1_565  S
C1084      C1085   1.398       .  A
C1084      H1089   1.085       .  S
C1085      C1086   1.425   1_545  A
C1086      N1087   1.437       .  S
N1087      H1091   1.045       .  S
N1087      H1092   1.042       .  S
N1090      H1093   1.046   1_545  S
N1090      H1094   1.045       .  S
C1095      C1096   1.386       .  A
C1095      C1100   1.392   1_554  A
C1095      H1102   1.085       .  S
C1096      C1097   1.420       .  A
C1097      C1098   1.404       .  A
C1097      N1104   1.426       .  S
C1098      C1099   1.396   1_554  A
C1098      H1103   1.084       .  S
C1099      C1100   1.423       .  A
C1100      N1101   1.431       .  S
N1101      H1105   1.046       .  S
N1101      H1106   1.046       .  S
N1104      H1107   1.045       .  S
N1104      H1108   1.043       .  S
C1109      C1110   1.402       .  A
C1109      C1114   1.394       .  A
C1109      H1116   1.080       .  S
C1110      C1111   1.400       .  A
C1111      C1112   1.403       .  A
C1111      N1118   1.437       .  S
C1112      C1113   1.413       .  A
C1112      H1117   1.083       .  S
C1113      C1114   1.408       .  A
C1114      N1115   1.439       .  S
N1115      H1119   1.046       .  S
N1115      H1120   1.046       .  S
N1118      H1121   1.046       .  S
N1118      H1122   1.046       .  S
C1123      C1124   1.392       .  A
C1123      C1128   1.396       .  A
C1123      H1130   1.084       .  S
C1124      C1125   1.406       .  A
C1125      C1126   1.386       .  A
C1125      N1132   1.431       .  S
C1126      C1127   1.390       .  A
C1126      H1131   1.085       .  S
C1127      C1128   1.413       .  A
C1128      N1129   1.438       .  S
N1129      H1133   1.046       .  S
N1129      H1134   1.044       .  S
N1132      H1135   1.044       .  S
N1132      H1136   1.045       .  S
C1137      C1138   1.406       .  A
C1137      C1142   1.413       .  A
C1137      H1144   1.083       .  S
C1138      C1139   1.409       .  A
C1139      C1140   1.385       .  A
C1139      N1146   1.440       .  S
C1140      C1141   1.408       .  A
C1140      H1145   1.082       .  S
C1141      C1142   1.412       .  A
C1142      N1143   1.433       .  S
N1143      H1147   1.044       .  S
N1143      H1148   1.045       .  S
N1146      H1149   1.044       .  S
N1146      H1150   1.046       .  S
C1151      C1152   1.404       .  A
C1151      C1156   1.399       .  A
C1151      H1158   1.083       .  S
C1152      C1153   1.417       .  A
C1153      C1154   1.404       .  A
C1153      N1160   1.431       .  S
C1154      C1155   1.396       .  A
C1154      H1159   1.084   1_655  S
C1155      C1156   1.409       .  A
C1156      N1157   1.436       .  S
N1157      H1161   1.046       .  S
N1157      H1162   1.045       .  S
N1160      H1163   1.043       .  S
N1160      H1164   1.046   1_655  S
C1165      C1166   1.401       .  A
C1165      C1170   1.409   1_556  A
C1165      H1172   1.084       .  S
C1166      C1167   1.426       .  A
C1167      C1168   1.384   1_556  A
C1167      N1174   1.429       .  S
C1168      C1169   1.392       .  A
C1168      H1173   1.084       .  S
C1169      C1170   1.422       .  A
C1170      N1171   1.437       .  S
N1171      H1175   1.046       .  S
N1171      H1176   1.046       .  S
N1174      H1177   1.045       .  S
N1174      H1178   1.042       .  S
C1179      C1180   1.407       .  A
C1179      C1184   1.396   1_554  A
C1179      H1186   1.082       .  S
C1180      C1181   1.424       .  A
C1181      C1182   1.410   1_554  A
C1181      N1188   1.437       .  S
C1182      C1183   1.406       .  A
C1182      H1187   1.084       .  S
C1183      C1184   1.413       .  A
C1184      N1185   1.433       .  S
N1185      H1189   1.046       .  S
N1185      H1190   1.046       .  S
N1188      H1191   1.038       .  S
N1188      H1192   1.046       .  S
C1193      C1194   1.414       .  A
C1193      C1198   1.396       .  A
C1193      H1200   1.083       .  S
C1194      C1195   1.416       .  A
C1195      C1196   1.405       .  A
C1195      N1202   1.432       .  S
C1196      C1197   1.407       .  A
C1196      H1201   1.084       .  S
C1197      C1198   1.410       .  A
C1198      N1199   1.440       .  S
N1199      H1203   1.046       .  S
N1199      H1204   1.041       .  S
N1202      H1205   1.046       .  S
N1202      H1206   1.044       .  S
C1207      C1208   1.387       .  A
C1207      C1212   1.377   1_655  A
C1207      H1214   1.085       .  S
C1208      C1209   1.420       .  A
C1209      C1210   1.418       .  A
C1209      N1216   1.429       .  S
C1210      C1211   1.405   1_655  A
C1210      H1215   1.083   1_655  S
C1211      C1212   1.430       .  A
C1212      N1213   1.424       .  S
N1213      H1217   1.039       .  S
N1213      H1218   1.043       .  S
N1216      H1219   1.046       .  S
N1216      H1220   1.046       .  S
C1221      C1222   1.399       .  A
C1221      C1226   1.400       .  A
C1221      H1228   1.085   1_455  S
C1222      C1223   1.416       .  A
C1223      C1224   1.402       .  A
C1223      N1230   1.433       .  S
C1224      C1225   1.405       .  A
C1224      H1229   1.082       .  S
C1225      C1226   1.409       .  A
C1226      N1227   1.429       .  S
N1227      H1231   1.044   1_455  S
N1227      H1232   1.044       .  S
N1230      H1233   1.046       .  S
N1230      H1234   1.044       .  S
C1235      C1236   1.409       .  A
C1235      C1240   1.398       .  A
C1235      H1242   1.084       .  S
C1236      C1237   1.415       .  A
C1237      C1238   1.412       .  A
C1237      N1244   1.437       .  S
C1238      C1239   1.407       .  A
C1238      H1243   1.084       .  S
C1239      C1240   1.402       .  A
C1240      N1241   1.439       .  S
N1241      H1245   1.046       .  S
N1241      H1246   1.046       .  S
N1244      H1247   1.044       .  S
N1244      H1248   1.045       .  S
C1249      C1250   1.405   1_545  A
C1249      C1254   1.410   1_544  A
C1249      H1256   1.084       .  S
C1250      C1251   1.413       .  A
C1251      C1252   1.404       .  A
C1251      N1258   1.435       .  S
C1252      C1253   1.399   1_554  A
C1252      H1257   1.084       .  S
C1253      C1254   1.409       .  A
C1254      N1255   1.437       .  S
N1255      H1259   1.046   1_565  S
N1255      H1260   1.046   1_565  S
N1258      H1261   1.046       .  S
N1258      H1262   1.044       .  S
C1263      C1264   1.408       .  A
C1263      C1268   1.405   1_554  A
C1263      H1270   1.084       .  S
C1264      C1265   1.413       .  A
C1265      C1266   1.406   1_554  A
C1265      N1272   1.438       .  S
C1266      C1267   1.407       .  A
C1266      H1271   1.084       .  S
C1267      C1268   1.419       .  A
C1268      N1269   1.438       .  S
N1269      H1273   1.045       .  S
N1269      H1274   1.041       .  S
N1272      H1275   1.046       .  S
N1272      H1276   1.046       .  S
C1277      C1278   1.388       .  A
C1277      C1282   1.384       .  A
C1277      H1284   1.081       .  S
C1278      C1279   1.409       .  A
C1279      C1280   1.382       .  A
C1279      N1286   1.440       .  S
C1280      C1281   1.389       .  A
C1280      H1285   1.085       .  S
C1281      C1282   1.408       .  A
C1282      N1283   1.434       .  S
N1283      H1287   1.045       .  S
N1283      H1288   1.045       .  S
N1286      H1289   1.045       .  S
N1286      H1290   1.046       .  S
C1291      C1292   1.399       .  A
C1291      C1296   1.386       .  A
C1291      H1298   1.084       .  S
C1292      C1293   1.415       .  A
C1293      C1294   1.390       .  A
C1293      N1300   1.434       .  S
C1294      C1295   1.393       .  A
C1294      H1299   1.084       .  S
C1295      C1296   1.404       .  A
C1296      N1297   1.432       .  S
N1297      H1301   1.045       .  S
N1297      H1302   1.046       .  S
N1300      H1303   1.046       .  S
N1300      H1304   1.046       .  S
C1305      C1306   1.414       .  A
C1305      C1310   1.410       .  A
C1305      H1312   1.084       .  S
C1306      C1307   1.411       .  A
C1307      C1308   1.408       .  A
C1307      N1314   1.436       .  S
C1308      C1309   1.412       .  A
C1308      H1313   1.083       .  S
C1309      C1310   1.415       .  A
C1310      N1311   1.432       .  S
N1311      H1315   1.042       .  S
N1311      H1316   1.045       .  S
N1314      H1317   1.046       .  S
N1314      H1318   1.046       .  S
C1319      C1320   1.403       .  A
C1319      C1324   1.398       .  A
C1319      H1326   1.084       .  S
C1320      C1321   1.409       .  A
C1321      C1322   1.405   1_455  A
C1321      N1328   1.436       .  S
C1322      C1323   1.410       .  A
C1322      H1327   1.083       .  S
C1323      C1324   1.419   1_655  A
C1324      N1325   1.430   1_455  S
N1325      H1329   1.045       .  S
N1325      H1330   1.041       .  S
N1328      H1331   1.044       .  S
N1328      H1332   1.046   1_545  S
C1333      C1334   1.411       .  A
C1333      C1338   1.405       .  A
C1333      H1340   1.083       .  S
C1334      C1335   1.411       .  A
C1335      C1336   1.418       .  A
C1335      N1342   1.436       .  S
C1336      C1337   1.409       .  A
C1336      H1341   1.073       .  S
C1337      C1338   1.416       .  A
C1338      N1339   1.439       .  S
N1339      H1343   1.045       .  S
N1339      H1344   1.043       .  S
N1342      H1345   1.045       .  S
N1342      H1346   1.044       .  S
C1347      C1348   1.400       .  A
C1347      C1352   1.396       .  A
C1347      H1354   1.084       .  S
C1348      C1349   1.405       .  A
C1349      C1350   1.413       .  A
C1349      N1356   1.436       .  S
C1350      C1351   1.410       .  A
C1350      H1355   1.083       .  S
C1351      C1352   1.415       .  A
C1352      N1353   1.437       .  S
N1353      H1357   1.045       .  S
N1353      H1358   1.044       .  S
N1356      H1359   1.045       .  S
N1356      H1360   1.045       .  S
