geometry optimzed in LAMMPS
_audit_creation_date              2020-12-01 
_audit_creation_method            'lammps2cif' 
_symmetry_space_group_name_H-M    'P1' 
_symmetry_Int_Tables_number       1 
_symmetry_cell_setting            triclinic 
loop_ 
_symmetry_equiv_pos_as_xyz 
  x,y,z 
_cell_length_a                    35.73955152 
_cell_length_b                    36.11552273357317 
_cell_length_c                    46.47426142322057 
_cell_angle_alpha                 90.18561624804023 
_cell_angle_beta                  89.94351852265267 
_cell_angle_gamma                 90.03636340904062 
loop_ 
_atom_site_label 
_atom_site_type_symbol 
_atom_site_fract_x 
_atom_site_fract_y 
_atom_site_fract_z 
_atom_site_charge 
In1        In  0.18509994  0.24438139  0.24718344     1.36900
C2          C  0.22719242  0.30496585  0.25175277     0.78500
O3          O  0.23347500  0.21148027  0.26316598    -0.60000
O4          O  0.20275830  0.18980525  0.22785404    -0.50900
C5          C  0.14402735  0.22029933  0.29147420     0.71100
O6          O  0.17015207  0.24351013  0.29426410    -0.45800
C7          C  0.14535730  0.26434078  0.20121002     0.75800
O8          O  0.19472094  0.30298030  0.26232821    -0.57600
O9          O  0.17583258  0.24691861  0.19942344    -0.47700
O10         O  0.23778523  0.27603655  0.23896539    -0.54100
C11         C  0.22935252  0.18539291  0.24539717     0.86000
O12         O  0.13807303  0.21082499  0.26574531    -0.55900
O13         O  0.13451502  0.27052774  0.22660030    -0.59200
In14       In  0.36728085  0.99452861  0.25063370     1.36900
C15         C  0.32437811  0.05481138  0.24790512     0.78500
O16         O  0.31775907  0.46163053  0.23583709    -0.60000
O17         O  0.35160548  0.43892976  0.26866187    -0.50900
C18         C  0.40952469  0.47312796  0.20646144     0.71100
O19         O  0.38135025  0.99376803  0.20370352    -0.45800
C20         C  0.40858021  0.01717993  0.29494959     0.75800
O21         O  0.35272620  0.05028262  0.23211224    -0.57600
O22         O  0.38149462  0.99513649  0.29804277    -0.47700
O23         O  0.31795892  0.02828439  0.26475661    -0.54100
C24         C  0.32328175  0.43500994  0.25274651     0.86000
O25         O  0.41698532  0.46439643  0.23206482    -0.55900
O26         O  0.41534002  0.02574721  0.26919919    -0.59200
In27       In  0.27313064  0.38200024  0.93095619     1.36900
C28         C  0.30831051  0.41882446  0.89049839     0.78500
O29         O  0.31704016  0.40381890  0.96082821    -0.60000
O30         O  0.31393125  0.34543542  0.95494182    -0.50900
C31         C  0.21364509  0.39258681  0.96355410     0.71100
O32         O  0.23196450  0.41957229  0.95338975    -0.45800
C33         C  0.23795454  0.34424535  0.88995857     0.75800
O34         O  0.28378129  0.43443680  0.90610909    -0.57600
O35         O  0.26132033  0.32875461  0.90660438    -0.47700
O36         O  0.31582917  0.38586556  0.89726210    -0.54100
C37         C  0.33120391  0.37255271  0.96608878     0.86000
O38         O  0.22763976  0.36106671  0.95889528    -0.55900
O39         O  0.23222185  0.37798992  0.89537731    -0.59200
In40       In  0.02561551  0.37108367  0.06991314     1.36900
C41         C  0.49062513  0.40809982  0.11099272     0.78500
O42         O  0.48394587  0.39550602  0.03994013    -0.60000
O43         O  0.48154154  0.33731872  0.04673135    -0.50900
C44         C  0.07938805  0.38630597  0.03228393     0.71100
O45         O  0.06586881  0.41056966  0.04900643    -0.45800
C46         C  0.06412208  0.32845413  0.10576032     0.75800
O47         O  0.01735611  0.42228020  0.09693278    -0.57600
O48         O  0.03751920  0.31558162  0.09072617    -0.47700
O49         O  0.48210920  0.37548266  0.10380375    -0.54100
C50         C  0.46748322  0.36536487  0.03447531     0.86000
O51         O  0.06451351  0.35468295  0.03450324    -0.55900
O52         O  0.07106430  0.36222115  0.10160058    -0.59200
In53       In  0.02618729  0.12239490  0.43020700     1.36900
C54         C  0.48880501  0.08527339  0.39042261     0.78500
O55         O  0.48284730  0.10214841  0.46050145    -0.60000
O56         O  0.48424587  0.16016438  0.45195025    -0.50900
C57         C  0.08132907  0.11283627  0.46769699     0.71100
O58         O  0.06604559  0.08580337  0.45479909    -0.45800
C59         C  0.06391711  0.15686599  0.38920658     0.75800
O60         O  0.01345077  0.06967265  0.40586747    -0.57600
O61         O  0.04074325  0.17390542  0.40517256    -0.47700
O62         O  0.48263977  0.11873910  0.39669628    -0.54100
C63         C  0.46777539  0.13342610  0.46424723     0.86000
O64         O  0.06753023  0.14404435  0.46166078    -0.55900
O65         O  0.06877924  0.12328941  0.39561686    -0.59200
In66       In  0.27555992  0.12505184  0.57000397     1.36900
C67         C  0.31220252  0.08849024  0.61026211     0.78500
O68         O  0.31605823  0.10329046  0.53772450    -0.60000
O69         O  0.31764197  0.16093788  0.54687490    -0.50900
C70         C  0.21635657  0.11437183  0.53688644     0.71100
O71         O  0.23339145  0.08755880  0.54850192    -0.45800
C72         C  0.24037965  0.16308115  0.61053578     0.75800
O73         O  0.28731786  0.07291190  0.59499578    -0.57600
O74         O  0.26352290  0.17867379  0.59372494    -0.47700
O75         O  0.31913345  0.12155026  0.60342726    -0.54100
C76         C  0.33187750  0.13401189  0.53318065     0.86000
O77         O  0.23132590  0.14569043  0.54072412    -0.55900
O78         O  0.23438103  0.12938625  0.60508096    -0.59200
In79       In  0.11623236  0.24965516  0.75112296     1.36900
C80         C  0.07274692  0.18954747  0.75351921     0.78500
O81         O  0.07203496  0.28600204  0.77035253    -0.60000
O82         O  0.09411357  0.30091977  0.72967198    -0.50900
C83         C  0.15959997  0.27410644  0.79390561     0.71100
O84         O  0.13393811  0.25060769  0.79764952    -0.45800
C85         C  0.15995334  0.22824757  0.70743554     0.75800
O86         O  0.10049564  0.19417330  0.76984079    -0.57600
O87         O  0.13315924  0.25053631  0.70421896    -0.47700
O88         O  0.06684681  0.21606316  0.73660121    -0.54100
C89         C  0.07184007  0.30874828  0.74986010     0.86000
O90         O  0.16401319  0.28341789  0.76797552    -0.55900
O91         O  0.16509603  0.21857331  0.73318205    -0.59200
In92       In  0.43316077  0.99947168  0.75026938     1.36900
C93         C  0.47547168  0.43861483  0.75003803     0.78500
O94         O  0.48100668  0.03297368  0.73354980    -0.60000
O95         O  0.45254104  0.05279617  0.77047131    -0.50900
C96         C  0.39187635  0.02206919  0.70615015     0.71100
O97         O  0.41881192  0.99989361  0.70297501    -0.45800
C98         C  0.38852324  0.48046721  0.79336110     0.75800
O99         O  0.44681351  0.44205891  0.73448092    -0.57600
O100        O  0.41501978  0.00316857  0.79659067    -0.47700
O101        O  0.48230449  0.46646226  0.76553434    -0.54100
C102        C  0.47834634  0.05804151  0.75237794     0.86000
O103        O  0.38540385  0.03114186  0.73187763    -0.55900
O104        O  0.38415288  0.46918542  0.76789606    -0.59200
C105        C  0.04936456  0.15540983  0.75353157    -0.04500
C106        C  0.03854424  0.13907955  0.72713897    -0.01600
C107        C  0.01616535  0.10689031  0.72679021     0.03400
C108        C  0.00329793  0.09118832  0.75289255    -0.04500
C109        C  0.01460278  0.10726030  0.77934207    -0.01600
C110        C  0.03811030  0.13875924  0.77963907     0.03400
C111        C  0.05178597  0.15447852  0.70014492     0.38100
C112        C  0.50317066  0.09078135  0.80642210     0.38000
C113        C  0.05057601  0.15403358  0.80691060     0.36500
C114        C  0.00634764  0.09022715  0.69934489     0.36500
N115        N  0.06085733  0.16595683  0.82866207    -0.38400
N116        N  0.99888205  0.07670333  0.67746784    -0.38400
N117        N  0.49405888  0.07770079  0.82802073    -0.37800
N118        N  0.06246257  0.16676692  0.67868557    -0.37800
C119        C  0.04736839  0.34203163  0.74973770    -0.04500
C120        C  0.04240073  0.36299365  0.77519258    -0.01600
C121        C  0.01811772  0.39377688  0.77550104     0.03400
C122        C  0.99949327  0.40483877  0.75003247    -0.04500
C123        C  0.00471303  0.38392900  0.72450445    -0.01600
C124        C  0.02838948  0.35263993  0.72440591     0.03400
C125        C  0.06339854  0.35384331  0.80096566     0.38100
C126        C  0.48640506  0.39484444  0.69797787     0.38000
C127        C  0.03242494  0.33085593  0.69829139     0.36500
C128        C  0.01142746  0.41310514  0.80245219     0.36500
N129        N  0.03561604  0.31347047  0.67746284    -0.38400
N130        N  0.00601376  0.42829453  0.82404074    -0.38400
N131        N  0.47179606  0.40345804  0.67683115    -0.37800
N132        N  0.08028693  0.34672690  0.82144769    -0.37800
C133        C  0.33136130  0.07050348  0.63503852    -0.04500
C134        C  0.33927745  0.03210408  0.63499419    -0.01600
C135        C  0.35922348  0.01606420  0.65808800     0.03400
C136        C  0.37065186  0.03810901  0.68170608    -0.04500
C137        C  0.36212274  0.07628948  0.68199131    -0.01600
C138        C  0.34242268  0.09233672  0.65899963     0.03400
C139        C  0.32748263  0.00900649  0.61106435     0.38100
C140        C  0.37496326  0.09969661  0.70550579     0.38000
C141        C  0.33274539  0.13136761  0.66072070     0.36500
C142        C  0.36741432  0.47673015  0.65763105     0.36500
N143        N  0.32510673  0.16245434  0.66225954    -0.38400
N144        N  0.37390692  0.44534280  0.65704950    -0.38400
N145        N  0.38530066  0.11822740  0.72424780    -0.37800
N146        N  0.31787069  0.49051203  0.59207163    -0.37800
C147        C  0.22222103  0.18152370  0.63568497    -0.04500
C148        C  0.20957413  0.21854340  0.63442312    -0.01600
C149        C  0.18940105  0.23411392  0.65778107     0.03400
C150        C  0.18253627  0.21303694  0.68297882    -0.04500
C151        C  0.19645764  0.17640921  0.68446708    -0.01600
C152        C  0.21620521  0.16087806  0.66115064     0.03400
C153        C  0.21645508  0.24049281  0.60884221     0.38100
C154        C  0.18916376  0.15352218  0.70953377     0.38000
C155        C  0.23080476  0.12349760  0.66380432     0.36500
C156        C  0.17593397  0.27187186  0.65575271     0.36500
N157        N  0.24225526  0.09364215  0.66599401    -0.38400
N158        N  0.16508488  0.30199231  0.65395507    -0.38400
N159        N  0.18343143  0.13517271  0.72940643    -0.37800
N160        N  0.22210184  0.25806146  0.58852932    -0.37800
C161        C  0.11372471  0.10915773  0.48781268    -0.04500
C162        C  0.11762752  0.13433141  0.51105489    -0.01600
C163        C  0.15067341  0.13491872  0.52756482     0.03400
C164        C  0.18036379  0.11043801  0.52113173    -0.04500
C165        C  0.17557880  0.08345942  0.49939229    -0.01600
C166        C  0.14237779  0.08276334  0.48278501     0.03400
C167        C  0.08747606  0.15953973  0.51844865     0.38100
C168        C  0.20556528  0.05764706  0.49308638     0.38000
C169        C  0.13879115  0.05596317  0.45963644     0.36500
C170        C  0.15374418  0.16044455  0.55170348     0.36500
N171        N  0.13603902  0.03448982  0.44122817    -0.38400
N172        N  0.15611641  0.18069396  0.57096076    -0.38400
N173        N  0.22950057  0.03704410  0.48803048    -0.37800
N174        N  0.06362639  0.17977941  0.52452602    -0.37800
C175        C  0.36519803  0.13733904  0.51378281    -0.04500
C176        C  0.39453016  0.16270256  0.51991112    -0.01600
C177        C  0.42762538  0.16272346  0.50307083     0.03400
C178        C  0.43192175  0.13713683  0.48030186    -0.04500
C179        C  0.40186170  0.11347626  0.47309637    -0.01600
C180        C  0.36887895  0.11336906  0.48975411     0.03400
C181        C  0.39173748  0.18759187  0.54437207     0.38100
C182        C  0.40429318  0.09005058  0.44768473     0.38000
C183        C  0.33856365  0.08868506  0.48165424     0.36500
C184        C  0.45763616  0.18838779  0.50971802     0.36500
N185        N  0.31458661  0.06884803  0.47509111    -0.38400
N186        N  0.48137700  0.20912836  0.51496362    -0.38400
N187        N  0.40611261  0.07167125  0.42728384    -0.37800
N188        N  0.38964592  0.20746769  0.56389878    -0.37800
C189        C  0.32617285  0.43630465  0.86510813    -0.04500
C190        C  0.33412976  0.41408479  0.84071521    -0.01600
C191        C  0.35462380  0.42860590  0.81757858     0.03400
C192        C  0.36565953  0.46620057  0.81763750    -0.04500
C193        C  0.35592687  0.48908532  0.84130214    -0.01600
C194        C  0.33655972  0.47405973  0.86511960     0.03400
C195        C  0.32080378  0.37609710  0.83895062     0.38100
C196        C  0.36543242  0.02813654  0.84113476     0.38000
C197        C  0.32860863  0.49717690  0.88997735     0.36500
C198        C  0.36617055  0.40381073  0.79452442     0.36500
N199        N  0.32232587  0.51557004  0.90983642    -0.38400
N200        N  0.37554038  0.38388334  0.77635501    -0.38400
N201        N  0.37287681  0.05933954  0.84105212    -0.37800
N202        N  0.31020011  0.34586373  0.83738974    -0.37800
C203        C  0.21910332  0.32532857  0.86526098    -0.04500
C204        C  0.21237416  0.34514094  0.83949553    -0.01600
C205        C  0.19414291  0.32801287  0.81607446     0.03400
C206        C  0.18149729  0.29092900  0.81810432    -0.04500
C207        C  0.18821002  0.27107467  0.84387981    -0.01600
C208        C  0.20690407  0.28818412  0.86727428     0.03400
C209        C  0.22416882  0.38348761  0.83673522     0.38100
C210        C  0.17644713  0.23276160  0.84638697     0.38000
C211        C  0.21176839  0.26801774  0.89395947     0.36500
C212        C  0.18752562  0.34945730  0.79017064     0.36500
N213        N  0.21541884  0.25198415  0.91529304    -0.38400
N214        N  0.18248355  0.36660448  0.76954079    -0.38400
N215        N  0.16710283  0.20218880  0.84846378    -0.37800
N216        N  0.23322834  0.41411471  0.83442714    -0.37800
C217        C  0.43372603  0.36398569  0.01555870    -0.04500
C218        C  0.40204432  0.34257879  0.02319059    -0.01600
C219        C  0.36888160  0.34442445  0.00657573     0.03400
C220        C  0.36659008  0.36862802  0.98283339    -0.04500
C221        C  0.39847671  0.38953040  0.97492113    -0.01600
C222        C  0.43203084  0.38657560  0.99078433     0.03400
C223        C  0.40273593  0.32015610  0.04900746     0.38100
C224        C  0.39711026  0.41364838  0.95000573     0.38000
C225        C  0.46531079  0.40592268  0.98097153     0.36500
C226        C  0.33651986  0.32258826  0.01469268     0.36500
N227        N  0.49201996  0.42098258  0.97314186    -0.38400
N228        N  0.31068057  0.30513420  0.02109303    -0.38400
N229        N  0.39604858  0.43298401  0.93020250    -0.37800
N230        N  0.40323509  0.30245007  0.06972184    -0.37800
C231        C  0.11126865  0.39349253  0.01230571    -0.04500
C232        C  0.11317534  0.37478355  0.98553625    -0.01600
C233        C  0.14609832  0.37635679  0.96885494     0.03400
C234        C  0.17740647  0.39658591  0.97874224    -0.04500
C235        C  0.17436418  0.41821824  0.00390373    -0.01600
C236        C  0.14141241  0.41667943  0.02071743     0.03400
C237        C  0.08116090  0.35413719  0.97488103     0.38100
C238        C  0.20589941  0.44044838  0.01330978     0.38000
C239        C  0.13964395  0.43738575  0.04746166     0.36500
C240        C  0.14761580  0.35747848  0.94121494     0.36500
N241        N  0.13824063  0.45396584  0.06878510    -0.38400
N242        N  0.14871521  0.34263854  0.91911748    -0.38400
N243        N  0.23111110  0.45817186  0.02074075    -0.37800
N244        N  0.05566592  0.33771369  0.96629411    -0.37800
C245        C  0.42968170  0.03365414  0.31946096    -0.04500
C246        C  0.43950425  0.01243134  0.34385817    -0.01600
C247        C  0.45879014  0.02906477  0.36715088     0.03400
C248        C  0.46910971  0.06685356  0.36597891    -0.04500
C249        C  0.46002040  0.08772725  0.34117658    -0.01600
C250        C  0.43977197  0.07148052  0.31844778     0.03400
C251        C  0.43092652  0.47319289  0.34472773     0.38100
C252        C  0.47257392  0.12581410  0.33828363     0.38000
C253        C  0.42823117  0.09436549  0.29436178     0.36500
C254        C  0.46708929  0.50740874  0.39258785     0.36500
N255        N  0.41889203  0.11248383  0.27517078    -0.38400
N256        N  0.47364834  0.49018934  0.41292584    -0.38400
N257        N  0.48269186  0.15608624  0.33577351    -0.37800
N258        N  0.42443678  0.44180897  0.34552082    -0.37800
C259        C  0.47038465  0.42766281  0.13433930    -0.04500
C260        C  0.49011705  0.44360475  0.15761114    -0.01600
C261        C  0.47035808  0.45936096  0.18098816     0.03400
C262        C  0.43079997  0.45870671  0.18137940    -0.04500
C263        C  0.41118394  0.44290515  0.15797101    -0.01600
C264        C  0.43087783  0.42790342  0.13441504     0.03400
C265        C  0.53068014  0.44204913  0.15819283     0.38100
C266        C  0.37067085  0.44007725  0.15880871     0.38000
C267        C  0.41031155  0.41298727  0.11005132     0.36500
C268        C  0.49076724  0.97659950  0.20444277     0.36500
N269        N  0.39385946  0.40127061  0.09061430    -0.38400
N270        N  0.50708123  0.99046871  0.22308361    -0.38400
N271        N  0.33839717  0.43759632  0.15967481    -0.37800
N272        N  0.06302780  0.94046537  0.15858977    -0.37800
C273        C  0.25120953  0.33851183  0.25381099    -0.04500
C274        C  0.28994762  0.33489353  0.25931314    -0.01600
C275        C  0.31340314  0.36634309  0.25929005     0.03400
C276        C  0.29839869  0.40186602  0.25371408    -0.04500
C277        C  0.25942236  0.40553101  0.24887098    -0.01600
C278        C  0.23594145  0.37407780  0.24923832     0.03400
C279        C  0.30567554  0.29885874  0.26596292     0.38100
C280        C  0.24307622  0.44174660  0.24393289     0.38000
C281        C  0.19607772  0.37842679  0.24432278     0.36500
C282        C  0.35324112  0.36166612  0.26414942     0.36500
N283        N  0.16426634  0.38196689  0.24061044    -0.38400
N284        N  0.38497238  0.35781327  0.26807837    -0.38400
N285        N  0.23002759  0.47059092  0.23988944    -0.37800
N286        N  0.31823103  0.27018763  0.27140169    -0.37800
C287        C  0.30053668  0.08861162  0.24705699    -0.04500
C288        C  0.28613981  0.10374948  0.27291079    -0.01600
C289        C  0.26294332  0.13530238  0.27226542     0.03400
C290        C  0.25361215  0.15199657  0.24574010    -0.04500
C291        C  0.26792873  0.13695946  0.21988538    -0.01600
C292        C  0.29164341  0.10568003  0.22054050     0.03400
C293        C  0.29599806  0.08758017  0.30045498     0.38100
C294        C  0.25894462  0.15410777  0.19254316     0.38000
C295        C  0.30617354  0.09073358  0.19376722     0.36500
C296        C  0.24774193  0.14989348  0.29898629     0.36500
N297        N  0.31784280  0.07897122  0.17236279    -0.38400
N298        N  0.23555000  0.16165289  0.32021869    -0.38400
N299        N  0.25168601  0.16771974  0.17074933    -0.37800
N300        N  0.30384907  0.07468474  0.32238925    -0.37800
C301        C  0.08333971  0.17394572  0.36409206    -0.04500
C302        C  0.08871736  0.15296315  0.33861107    -0.01600
C303        C  0.10802453  0.16821062  0.31493674     0.03400
C304        C  0.12267612  0.20465803  0.31639024    -0.04500
C305        C  0.11736739  0.22556500  0.34196612    -0.01600
C306        C  0.09717319  0.21055761  0.36539966     0.03400
C307        C  0.07355765  0.11571095  0.33625629     0.38100
C308        C  0.13249009  0.26273351  0.34438636     0.38000
C309        C  0.09130417  0.23276448  0.39107539     0.36500
C310        C  0.11373279  0.14548517  0.28946009     0.36500
N311        N  0.08641963  0.25065137  0.41144135    -0.38400
N312        N  0.11813210  0.12725431  0.26920678    -0.38400
N313        N  0.14481492  0.29226336  0.34646149    -0.37800
N314        N  0.06156273  0.08602399  0.33435773    -0.35400
C315        C  0.08535225  0.30689913  0.12759795    -0.04500
C316        C  0.06639493  0.28530626  0.14834564    -0.01600
C317        C  0.08589300  0.27140942  0.17249210     0.03400
C318        C  0.12474480  0.27770983  0.17546228    -0.04500
C319        C  0.14402081  0.29761925  0.15390994    -0.01600
C320        C  0.12447023  0.31191915  0.13004816     0.03400
C321        C  0.02666300  0.27816747  0.14533076     0.38100
C322        C  0.18361672  0.30554985  0.15718847     0.38000
C323        C  0.14483187  0.33142928  0.10767510     0.36500
C324        C  0.06584511  0.25085182  0.19441346     0.36500
N325        N  0.16095546  0.34678096  0.08969969    -0.38400
N326        N  0.04984386  0.23465172  0.21199710    -0.38400
N327        N  0.21512731  0.31206187  0.15999559    -0.37800
N328        N  0.99502372  0.27213163  0.14275356    -0.37800
In329      In  0.18510192  0.74438233  0.24718470     1.36900
C330        C  0.22719436  0.80496702  0.25175365     0.78500
O331        O  0.23347804  0.71148077  0.26316534    -0.60000
O332        O  0.20275748  0.68980479  0.22785580    -0.50900
C333        C  0.14402913  0.72030109  0.29147578     0.71100
O334        O  0.17015578  0.74350967  0.29426594    -0.45800
C335        C  0.14535951  0.76434167  0.20121107     0.75800
O336        O  0.19472362  0.80298088  0.26233048    -0.57600
O337        O  0.17583434  0.74691867  0.19942463    -0.47700
O338        O  0.23778640  0.77603827  0.23896522    -0.54100
C339        C  0.22935316  0.68539262  0.24539761     0.86000
O340        O  0.13807301  0.71082879  0.26574671    -0.55900
O341        O  0.13451771  0.77052978  0.22660127    -0.59200
In342      In  0.36727993  0.49452667  0.25063434     1.36900
C343        C  0.32437626  0.55480893  0.24790613     0.78500
O344        O  0.31775990  0.96163228  0.23583667    -0.60000
O345        O  0.35160673  0.93893160  0.26866127    -0.50900
C346        C  0.40952558  0.97312940  0.20646094     0.71100
O347        O  0.38134946  0.49376683  0.20370416    -0.45800
C348        C  0.40857975  0.51717817  0.29494993     0.75800
O349        O  0.35272389  0.55028024  0.23211268    -0.57600
O350        O  0.38149467  0.49513423  0.29804327    -0.47700
O351        O  0.31795825  0.52828229  0.26475814    -0.54100
C352        C  0.32328289  0.93501168  0.25274605     0.86000
O353        O  0.41698639  0.96439843  0.23206444    -0.55900
O354        O  0.41533875  0.52574593  0.26919945    -0.59200
In355      In  0.27312991  0.88199976  0.93095677     1.36900
C356        C  0.30831146  0.91882400  0.89049948     0.78500
O357        O  0.31703763  0.90381843  0.96083041    -0.60000
O358        O  0.31393056  0.84543512  0.95494268    -0.50900
C359        C  0.21364338  0.89258601  0.96355349     0.71100
O360        O  0.23196285  0.91957159  0.95338932    -0.45800
C361        C  0.23795432  0.84424451  0.88995903     0.75800
O362        O  0.28378199  0.93443655  0.90610981    -0.57600
O363        O  0.26132001  0.82875392  0.90660503    -0.47700
O364        O  0.31582947  0.88586500  0.89726332    -0.54100
C365        C  0.33120213  0.87255239  0.96609055     0.86000
O366        O  0.22763837  0.86106596  0.95889507    -0.55900
O367        O  0.23222165  0.87798914  0.89537756    -0.59200
In368      In  0.02561551  0.87108179  0.06991363     1.36900
C369        C  0.49062620  0.90809861  0.11099342     0.78500
O370        O  0.48394563  0.89550460  0.03994126    -0.60000
O371        O  0.48154019  0.83731747  0.04673286    -0.50900
C372        C  0.07938699  0.88630402  0.03228367     0.71100
O373        O  0.06586797  0.91056761  0.04900620    -0.45800
C374        C  0.06412330  0.82845334  0.10576101     0.75800
O375        O  0.01735692  0.92227887  0.09693278    -0.57600
O376        O  0.03752101  0.81558004  0.09072672    -0.47700
O377        O  0.48210944  0.87548171  0.10380441    -0.54100
C378        C  0.46748221  0.86536378  0.03447678     0.86000
O379        O  0.06451271  0.85468080  0.03450321    -0.55900
O380        O  0.07106434  0.86222066  0.10160141    -0.59200
In381      In  0.02618767  0.62239414  0.43020693     1.36900
C382        C  0.48880567  0.58527173  0.39042245     0.78500
O383        O  0.48284642  0.60214745  0.46050122    -0.60000
O384        O  0.48424614  0.66016344  0.45195039    -0.50900
C385        C  0.08132941  0.61283583  0.46769695     0.71100
O386        O  0.06604586  0.58580276  0.45479931    -0.45800
C387        C  0.06391806  0.65686597  0.38920712     0.75800
O388        O  0.01345158  0.56967155  0.40586771    -0.57600
O389        O  0.04074349  0.67390487  0.40517264    -0.47700
O390        O  0.48264061  0.61873758  0.39669561    -0.54100
C391        C  0.46777509  0.63342549  0.46424713     0.86000
O392        O  0.06753058  0.64404380  0.46166041    -0.55900
O393        O  0.06878052  0.62328930  0.39561735    -0.59200
In394      In  0.27555998  0.62505293  0.57000396     1.36900
C395        C  0.31220279  0.58849075  0.61026158     0.78500
O396        O  0.31605790  0.60329111  0.53772431    -0.60000
O397        O  0.31764196  0.66093856  0.54687467    -0.50900
C398        C  0.21635694  0.61437288  0.53688627     0.71100
O399        O  0.23339148  0.58755982  0.54850217    -0.45800
C400        C  0.24038024  0.66308248  0.61053598     0.75800
O401        O  0.28731756  0.57291283  0.59499558    -0.57600
O402        O  0.26352340  0.67867498  0.59372499    -0.47700
O403        O  0.31913425  0.62155064  0.60342662    -0.54100
C404        C  0.33187726  0.63401255  0.53318034     0.86000
O405        O  0.23132649  0.64569132  0.54072370    -0.55900
O406        O  0.23438140  0.62938763  0.60508126    -0.59200
In407      In  0.11623240  0.74965492  0.75112303     1.36900
C408        C  0.07274742  0.68954677  0.75351857     0.78500
O409        O  0.07203504  0.78600177  0.77035294    -0.60000
O410        O  0.09411424  0.80092031  0.72967276    -0.50900
C411        C  0.15960029  0.77410515  0.79390598     0.71100
O412        O  0.13393799  0.75060684  0.79764976    -0.45800
C413        C  0.15995361  0.72824839  0.70743556     0.75800
O414        O  0.10049630  0.69417236  0.76983994    -0.57600
O415        O  0.13315848  0.75053586  0.70421888    -0.47700
O416        O  0.06684686  0.71606289  0.73660102    -0.54100
C417        C  0.07184045  0.80874843  0.74986075     0.86000
O418        O  0.16401375  0.78341659  0.76797589    -0.55900
O419        O  0.16509710  0.71857482  0.73318215    -0.59200
In420      In  0.43316011  0.49947193  0.75026908     1.36900
C421        C  0.47547273  0.93861471  0.75003783     0.78500
O422        O  0.48100664  0.53297319  0.73354979    -0.60000
O423        O  0.45253991  0.55279680  0.77047048    -0.50900
C424        C  0.39187609  0.52206916  0.70614952     0.71100
O425        O  0.41881192  0.49989385  0.70297449    -0.45800
C426        C  0.38852453  0.98046645  0.79336185     0.75800
O427        O  0.44681389  0.94205837  0.73448138    -0.57600
O428        O  0.41501825  0.50316950  0.79659009    -0.47700
O429        O  0.48230617  0.96646257  0.76553350    -0.54100
C430        C  0.47834570  0.55804157  0.75237754     0.86000
O431        O  0.38540313  0.53114161  0.73187693    -0.55900
O432        O  0.38415373  0.96918501  0.76789680    -0.59200
C433        C  0.04936510  0.65540913  0.75353069    -0.04500
C434        C  0.03854456  0.63907913  0.72713812    -0.01600
C435        C  0.01616546  0.60689007  0.72678916     0.03400
C436        C  0.00329796  0.59118809  0.75289146    -0.04500
C437        C  0.01460285  0.60725982  0.77934105    -0.01600
C438        C  0.03811083  0.63875846  0.77963816     0.03400
C439        C  0.05178657  0.65447822  0.70014400     0.38100
C440        C  0.50317017  0.59078107  0.80642160     0.38000
C441        C  0.05057719  0.65403216  0.80690975     0.36500
C442        C  0.00634761  0.59022702  0.69934382     0.36500
N443        N  0.06085926  0.66595473  0.82866122    -0.38400
N444        N  0.99888182  0.57670336  0.67746677    -0.38400
N445        N  0.49405806  0.57770061  0.82802028    -0.37800
N446        N  0.06246340  0.66676646  0.67868492    -0.37800
C447        C  0.04736856  0.84203167  0.74973840    -0.04500
C448        C  0.04240052  0.86299356  0.77519334    -0.01600
C449        C  0.01811750  0.89377680  0.77550163     0.03400
C450        C  0.99949316  0.90483870  0.75003304    -0.04500
C451        C  0.00471298  0.88392877  0.72450512    -0.01600
C452        C  0.02838970  0.85263994  0.72440654     0.03400
C453        C  0.06339767  0.85384298  0.80096651     0.38100
C454        C  0.48640545  0.89484356  0.69797802     0.38000
C455        C  0.03242539  0.83085598  0.69829204     0.36500
C456        C  0.01142694  0.91310517  0.80245281     0.36500
N457        N  0.03561684  0.81347054  0.67746348    -0.38400
N458        N  0.00601294  0.92829458  0.82404118    -0.38400
N459        N  0.47179605  0.90345675  0.67683137    -0.37800
N460        N  0.08028554  0.84672620  0.82144892    -0.37800
C461        C  0.33136150  0.57050380  0.63503791    -0.04500
C462        C  0.33927674  0.53210414  0.63499373    -0.01600
C463        C  0.35922270  0.51606417  0.65808759     0.03400
C464        C  0.37065189  0.53810901  0.68170532    -0.04500
C465        C  0.36212351  0.57628967  0.68199043    -0.01600
C466        C  0.34242335  0.59233691  0.65899884     0.03400
C467        C  0.32748089  0.50900654  0.61106440     0.38100
C468        C  0.37496468  0.59969669  0.70550467     0.38000
C469        C  0.33274595  0.63136796  0.66072013     0.36500
C470        C  0.36741631  0.97673049  0.65763105     0.36500
N471        N  0.32510708  0.66245437  0.66225928    -0.38400
N472        N  0.37391000  0.94534334  0.65704908    -0.38400
N473        N  0.38530264  0.61822748  0.72424654    -0.37800
N474        N  0.31787348  0.99051235  0.59207125    -0.37800
C475        C  0.22222192  0.68152516  0.63568526    -0.04500
C476        C  0.20957478  0.71854478  0.63442335    -0.01600
C477        C  0.18940139  0.73411511  0.65778124     0.03400
C478        C  0.18253686  0.71303809  0.68297897    -0.04500
C479        C  0.19645876  0.67641061  0.68446735    -0.01600
C480        C  0.21620633  0.66087956  0.66115093     0.03400
C481        C  0.21645561  0.74049424  0.60884261     0.38100
C482        C  0.18916508  0.65352360  0.70953419     0.38000
C483        C  0.23080614  0.62349905  0.66380464     0.36500
C484        C  0.17593361  0.77187274  0.65575274     0.36500
N485        N  0.24225669  0.59364384  0.66599441    -0.38400
N486        N  0.16508380  0.80199296  0.65395487    -0.38400
N487        N  0.18343264  0.63517442  0.72940685    -0.37800
N488        N  0.22210219  0.75806320  0.58852970    -0.37800
C489        C  0.11372499  0.60915771  0.48781277    -0.04500
C490        C  0.11762872  0.63433332  0.51105363    -0.01600
C491        C  0.15067467  0.63492121  0.52756346     0.03400
C492        C  0.18036430  0.61043888  0.52113152    -0.04500
C493        C  0.17557828  0.58345851  0.49939364    -0.01600
C494        C  0.14237723  0.58276185  0.48278649     0.03400
C495        C  0.08747807  0.65954307  0.51844630     0.38100
C496        C  0.20556415  0.55764438  0.49308902     0.38000
C497        C  0.13878968  0.55595963  0.45963943     0.36500
C498        C  0.15374625  0.66044899  0.55170061     0.36500
N499        N  0.13603704  0.53448462  0.44123244    -0.38400
N500        N  0.15611920  0.68070034  0.57095689    -0.38400
N501        N  0.22949856  0.53704038  0.48803435    -0.37800
N502        N  0.06362894  0.67978391  0.52452280    -0.37800
C503        C  0.36519758  0.63733956  0.51378244    -0.04500
C504        C  0.39452997  0.66270277  0.51991081    -0.01600
C505        C  0.42762538  0.66272320  0.50307077     0.03400
C506        C  0.43192138  0.63713666  0.48030164    -0.04500
C507        C  0.40186090  0.61347687  0.47309590    -0.01600
C508        C  0.36887819  0.61336978  0.48975363     0.03400
C509        C  0.39173728  0.68759229  0.54437164     0.38100
C510        C  0.40429179  0.59005197  0.44768380     0.38000
C511        C  0.33856259  0.58868613  0.48165375     0.36500
C512        C  0.45763654  0.68838671  0.50971834     0.36500
N513        N  0.31458531  0.56884931  0.47509070    -0.38400
N514        N  0.48137787  0.70912681  0.51496429    -0.38400
N515        N  0.40611069  0.57167345  0.42728250    -0.37800
N516        N  0.38964565  0.70746831  0.56389818    -0.37800
C517        C  0.32617457  0.93630397  0.86510936    -0.04500
C518        C  0.33413051  0.91408428  0.84071616    -0.01600
C519        C  0.35462402  0.92860548  0.81757916     0.03400
C520        C  0.36566102  0.96619984  0.81763847    -0.04500
C521        C  0.35593014  0.98908422  0.84130376    -0.01600
C522        C  0.33656287  0.97405873  0.86512131     0.03400
C523        C  0.32080448  0.87609666  0.83895183     0.38100
C524        C  0.36542711  0.52813828  0.84113235     0.38000
C525        C  0.32861386  0.99717526  0.88997952     0.36500
C526        C  0.36616857  0.90381073  0.79452422     0.36500
N527        N  0.32233285  0.01556825  0.90983936    -0.38400
N528        N  0.37553649  0.88388346  0.77635399    -0.38400
N529        N  0.37286960  0.55934148  0.84104911    -0.37800
N530        N  0.31020093  0.84586307  0.83739143    -0.37800
C531        C  0.21910323  0.82532749  0.86526149    -0.04500
C532        C  0.21237428  0.84513965  0.83949593    -0.01600
C533        C  0.19414382  0.82801128  0.81607465     0.03400
C534        C  0.18149773  0.79092757  0.81810469    -0.04500
C535        C  0.18820998  0.77107338  0.84388036    -0.01600
C536        C  0.20690389  0.78818304  0.86727490     0.03400
C537        C  0.22416805  0.88348661  0.83673581     0.38100
C538        C  0.17644711  0.73276058  0.84638749     0.38000
C539        C  0.21176778  0.76801695  0.89396012     0.36500
C540        C  0.18752796  0.84945512  0.79017042     0.36500
N541        N  0.21541778  0.75198339  0.91529391    -0.38400
N542        N  0.18248716  0.86660179  0.76953999    -0.38400
N543        N  0.16710258  0.70218749  0.84846421    -0.37800
N544        N  0.23322672  0.91411396  0.83442798    -0.37800
C545        C  0.43372458  0.86398520  0.01556037    -0.04500
C546        C  0.40204346  0.84257691  0.02319143    -0.01600
C547        C  0.36888058  0.84442283  0.00657665     0.03400
C548        C  0.36658822  0.86862810  0.98283543    -0.04500
C549        C  0.39847414  0.88953210  0.97492412    -0.01600
C550        C  0.43202857  0.88657687  0.99078700     0.03400
C551        C  0.40273578  0.82015228  0.04900722     0.38100
C552        C  0.39710687  0.91365202  0.95001002     0.38000
C553        C  0.46530783  0.90592523  0.98097464     0.36500
C554        C  0.33651946  0.82258493  0.01469259     0.36500
N555        N  0.49201663  0.92098627  0.97314527    -0.38400
N556        N  0.31068086  0.80512958  0.02109214    -0.38400
N557        N  0.39604442  0.93298936  0.93020766    -0.37800
N558        N  0.40323542  0.80244460  0.06972077    -0.37800
C559        C  0.11126725  0.89349068  0.01230518    -0.04500
C560        C  0.11317388  0.87478190  0.98553570    -0.01600
C561        C  0.14609662  0.87635572  0.96885414     0.03400
C562        C  0.17740467  0.89658505  0.97874142    -0.04500
C563        C  0.17436236  0.91821706  0.00390300    -0.01600
C564        C  0.14141088  0.91667784  0.02071693     0.03400
C565        C  0.08115980  0.85413475  0.97488078     0.38100
C566        C  0.20589758  0.94044736  0.01330912     0.38000
C567        C  0.13964271  0.93738353  0.04746139     0.36500
C568        C  0.14761393  0.85747797  0.94121386     0.36500
N569        N  0.13823956  0.95396317  0.06878512    -0.38400
N570        N  0.14871301  0.84263862  0.91911623    -0.38400
N571        N  0.23110912  0.95817079  0.02074010    -0.37800
N572        N  0.05566512  0.83771047  0.96629413    -0.37800
C573        C  0.42968182  0.53365236  0.31946109    -0.04500
C574        C  0.43950383  0.51242974  0.34385859    -0.01600
C575        C  0.45879013  0.52906312  0.36715115     0.03400
C576        C  0.46911067  0.56685162  0.36597874    -0.04500
C577        C  0.46002223  0.58772494  0.34117608    -0.01600
C578        C  0.43977314  0.57147849  0.31844754     0.03400
C579        C  0.43092795  0.97319429  0.34472684     0.38100
C580        C  0.47257752  0.62581138  0.33828245     0.38000
C581        C  0.42823288  0.59436344  0.29436146     0.36500
C582        C  0.46708963  0.00741021  0.39258746     0.36500
N583        N  0.41889426  0.61248172  0.27517017    -0.38400
N584        N  0.47364891  0.99019097  0.41292542    -0.38400
N585        N  0.48269666  0.65608276  0.33577178    -0.37800
N586        N  0.42443902  0.94181014  0.34551954    -0.37800
C587        C  0.47038587  0.92766234  0.13433970    -0.04500
C588        C  0.49011819  0.94360425  0.15761158    -0.01600
C589        C  0.47035908  0.95936080  0.18098834     0.03400
C590        C  0.43080098  0.95870781  0.18137904    -0.04500
C591        C  0.41118506  0.94290699  0.15797026    -0.01600
C592        C  0.43087906  0.92790412  0.13441481     0.03400
C593        C  0.53068128  0.94204856  0.15819342     0.38100
C594        C  0.37067170  0.94008078  0.15880708     0.38000
C595        C  0.41031300  0.91298820  0.11005090     0.36500
C596        C  0.49076615  0.47660054  0.20444203     0.36500
N597        N  0.39386114  0.90127176  0.09061366    -0.38400
N598        N  0.50708035  0.49047082  0.22308256    -0.38400
N599        N  0.33839804  0.93760131  0.15967243    -0.37800
N600        N  0.06302721  0.44046367  0.15859002    -0.37800
C601        C  0.25121130  0.83851318  0.25381149    -0.04500
C602        C  0.28994971  0.83489507  0.25931268    -0.01600
C603        C  0.31340506  0.86634470  0.25928879     0.03400
C604        C  0.29840014  0.90186761  0.25371375    -0.04500
C605        C  0.25942355  0.90553241  0.24887173    -0.01600
C606        C  0.23594292  0.87407904  0.24923932     0.03400
C607        C  0.30567783  0.79886045  0.26596244     0.38100
C608        C  0.24307704  0.94174809  0.24393459     0.38000
C609        C  0.19607885  0.87842775  0.24432453     0.36500
C610        C  0.35324369  0.86166773  0.26414600     0.36500
N611        N  0.16426749  0.88196751  0.24061280    -0.38400
N612        N  0.38497518  0.85781494  0.26807301    -0.38400
N613        N  0.23002836  0.97059246  0.23989200    -0.37800
N614        N  0.31823332  0.77018935  0.27140126    -0.37800
C615        C  0.30053417  0.58860884  0.24705779    -0.04500
C616        C  0.28613771  0.60374738  0.27291148    -0.01600
C617        C  0.26294221  0.63530110  0.27226598     0.03400
C618        C  0.25361148  0.65199519  0.24574053    -0.04500
C619        C  0.26792642  0.63695664  0.21988583    -0.01600
C620        C  0.29164010  0.60567640  0.22054116     0.03400
C621        C  0.29599490  0.58757768  0.30045586     0.38100
C622        C  0.25894123  0.65410372  0.19254343     0.38000
C623        C  0.30616802  0.59072796  0.19376771     0.36500
C624        C  0.24774111  0.64989278  0.29898655     0.36500
N625        N  0.31783529  0.57896385  0.17236338    -0.38400
N626        N  0.23554892  0.66165252  0.32021895    -0.38400
N627        N  0.25168156  0.66771458  0.17074932    -0.37800
N628        N  0.30384468  0.57468182  0.32239010    -0.37800
C629        C  0.08334122  0.67394606  0.36409295    -0.04500
C630        C  0.08871881  0.65296420  0.33861169    -0.01600
C631        C  0.10802593  0.66821228  0.31493756     0.03400
C632        C  0.12267773  0.70465947  0.31639167    -0.04500
C633        C  0.11736946  0.72556571  0.34196792    -0.01600
C634        C  0.09717530  0.71055773  0.36540138     0.03400
C635        C  0.07355980  0.61571181  0.33625654     0.38100
C636        C  0.13249237  0.76273388  0.34438864     0.38000
C637        C  0.09130735  0.73276341  0.39107776     0.36500
C638        C  0.11373425  0.64548744  0.28946054     0.36500
N639        N  0.08642379  0.75064926  0.41144454    -0.38400
N640        N  0.11813376  0.62725716  0.26920700    -0.38400
N641        N  0.14481747  0.79226373  0.34646425    -0.37800
N642        N  0.06156554  0.58602460  0.33435772    -0.35400
C643        C  0.08535412  0.80689893  0.12759876    -0.04500
C644        C  0.06639717  0.78530500  0.14834604    -0.01600
C645        C  0.08589550  0.77140849  0.17249257     0.03400
C646        C  0.12474696  0.77771024  0.17546317    -0.04500
C647        C  0.14402265  0.79762059  0.15391123    -0.01600
C648        C  0.12447183  0.81192048  0.13004946     0.03400
C649        C  0.02666562  0.77816527  0.14533096     0.38100
C650        C  0.18361817  0.80555217  0.15719017     0.38000
C651        C  0.14483303  0.83143241  0.10767725     0.36500
C652        C  0.06584795  0.75084991  0.19441364     0.36500
N653        N  0.16095636  0.84678576  0.08970242    -0.38400
N654        N  0.04984698  0.73464905  0.21199690    -0.38400
N655        N  0.21512867  0.81206498  0.15999773    -0.37800
N656        N  0.99502629  0.77212865  0.14275357    -0.37800
In657      In  0.68509980  0.24438134  0.24718380     1.36900
C658        C  0.72719206  0.30496587  0.25175301     0.78500
O659        O  0.73347428  0.21147954  0.26316622    -0.60000
O660        O  0.70275786  0.18980530  0.22785384    -0.50900
C661        C  0.64402716  0.22029935  0.29147446     0.71100
O662        O  0.67015211  0.24350985  0.29426443    -0.45800
C663        C  0.64535766  0.26434077  0.20121017     0.75800
O664        O  0.69471977  0.30298110  0.26232710    -0.57600
O665        O  0.67583331  0.24691914  0.19942364    -0.47700
O666        O  0.73778584  0.27603575  0.23896732    -0.54100
C667        C  0.72935188  0.18539256  0.24539718     0.86000
O668        O  0.63807258  0.21082525  0.26574554    -0.55900
O669        O  0.63451499  0.27052704  0.22660042    -0.59200
In670      In  0.86728015  0.99452812  0.25063388     1.36900
C671        C  0.82437760  0.05481090  0.24790510     0.78500
O672        O  0.81775997  0.46162986  0.23583587    -0.60000
O673        O  0.85160391  0.43893043  0.26866273    -0.50900
C674        C  0.90952483  0.47312747  0.20646204     0.71100
O675        O  0.88134983  0.99376801  0.20370370    -0.45800
C676        C  0.90857955  0.01717945  0.29494979     0.75800
O677        O  0.85272569  0.05028212  0.23211227    -0.57600
O678        O  0.88149365  0.99513644  0.29804304    -0.47700
O679        O  0.81795836  0.02828397  0.26475663    -0.54100
C680        C  0.82328135  0.43500996  0.25274621     0.86000
O681        O  0.91698432  0.46439498  0.23206540    -0.55900
O682        O  0.91533960  0.02574635  0.26919933    -0.59200
In683      In  0.77313132  0.38200136  0.93095578     1.36900
C684        C  0.80831134  0.41882582  0.89049817     0.78500
O685        O  0.81704025  0.40382014  0.96082822    -0.60000
O686        O  0.81393214  0.34543668  0.95494136    -0.50900
C687        C  0.71364551  0.39258655  0.96355374     0.71100
O688        O  0.73196452  0.41957251  0.95338956    -0.45800
C689        C  0.73795577  0.34424667  0.88995780     0.75800
O690        O  0.78378191  0.43443802  0.90610869    -0.57600
O691        O  0.76132144  0.32875593  0.90660382    -0.47700
O692        O  0.81583021  0.38586693  0.89726204    -0.54100
C693        C  0.83120427  0.37255395  0.96608866     0.86000
O694        O  0.72764066  0.36106679  0.95889462    -0.55900
O695        O  0.73222309  0.37799125  0.89537645    -0.59200
In696      In  0.52561538  0.37108310  0.06991314     1.36900
C697        C  0.99062519  0.40809960  0.11099312     0.78500
O698        O  0.98394630  0.39550708  0.03994012    -0.60000
O699        O  0.98154145  0.33731978  0.04673135    -0.50900
C700        C  0.57938832  0.38630502  0.03228402     0.71100
O701        O  0.56586944  0.41056863  0.04900663    -0.45800
C702        C  0.56412197  0.32845380  0.10576050     0.75800
O703        O  0.51735536  0.42228050  0.09693172    -0.57600
O704        O  0.53751841  0.31558144  0.09072699    -0.47700
O705        O  0.98210851  0.37548299  0.10380317    -0.54100
C706        C  0.96748346  0.36536604  0.03447530     0.86000
O707        O  0.56451315  0.35468212  0.03450316    -0.55900
O708        O  0.57106493  0.36222052  0.10159999    -0.59200
In709      In  0.52618716  0.12239509  0.43020717     1.36900
C710        C  0.98880494  0.08527328  0.39042248     0.78500
O711        O  0.98284737  0.10214858  0.46050143    -0.60000
O712        O  0.98424608  0.16016447  0.45195012    -0.50900
C713        C  0.58132904  0.11283656  0.46769716     0.71100
O714        O  0.56604548  0.08580363  0.45479932    -0.45800
C715        C  0.56391654  0.15686625  0.38920666     0.75800
O716        O  0.51345105  0.06967289  0.40586747    -0.57600
O717        O  0.54074271  0.17390553  0.40517264    -0.47700
O718        O  0.98263996  0.11873907  0.39669599    -0.54100
C719        C  0.96777556  0.13342634  0.46424716     0.86000
O720        O  0.56753018  0.14404464  0.46166085    -0.55900
O721        O  0.56877900  0.12328967  0.39561696    -0.59200
In722      In  0.77556003  0.12505237  0.57000401     1.36900
C723        C  0.81220305  0.08849102  0.61026198     0.78500
O724        O  0.81605833  0.10329077  0.53772452    -0.60000
O725        O  0.81764210  0.16093821  0.54687487    -0.50900
C726        C  0.71635652  0.11437228  0.53688663     0.71100
O727        O  0.73339136  0.08755918  0.54850220    -0.45800
C728        C  0.74038006  0.16308159  0.61053616     0.75800
O729        O  0.78731840  0.07291252  0.59499567    -0.57600
O730        O  0.76352304  0.17867430  0.59372514    -0.47700
O731        O  0.81913375  0.12155106  0.60342718    -0.54100
C732        C  0.83187765  0.13401223  0.53318067     0.86000
O733        O  0.73132599  0.14569076  0.54072414    -0.55900
O734        O  0.73438147  0.12938670  0.60508135    -0.59200
In735      In  0.61623200  0.24965510  0.75112336     1.36900
C736        C  0.57274661  0.18954723  0.75351947     0.78500
O737        O  0.57203502  0.28600211  0.77035322    -0.60000
O738        O  0.59411211  0.30091889  0.72967195    -0.50900
C739        C  0.65960009  0.27410698  0.79390564     0.71100
O740        O  0.63393824  0.25060824  0.79764980    -0.45800
C741        C  0.65995365  0.22824751  0.70743618     0.75800
O742        O  0.60049481  0.19417339  0.76984145    -0.57600
O743        O  0.63316015  0.25053694  0.70421957    -0.47700
O744        O  0.56684687  0.21606277  0.73660118    -0.54100
C745        C  0.57183930  0.30874781  0.74986047     0.86000
O746        O  0.66401299  0.28341818  0.76797547    -0.55900
O747        O  0.66509535  0.21857245  0.73318263    -0.59200
In748      In  0.93316080  0.99947232  0.75026954     1.36900
C749        C  0.97547240  0.43861530  0.75003757     0.78500
O750        O  0.98100673  0.03297419  0.73354987    -0.60000
O751        O  0.95254141  0.05279665  0.77047154    -0.50900
C752        C  0.89187675  0.02207023  0.70615017     0.71100
O753        O  0.91881223  0.99989453  0.70297510    -0.45800
C754        C  0.88852376  0.48046796  0.79336047     0.75800
O755        O  0.94681418  0.44205917  0.73448048    -0.57600
O756        O  0.91501913  0.00316965  0.79659067    -0.47700
O757        O  0.98230524  0.46646278  0.76553374    -0.54100
C758        C  0.97834656  0.05804202  0.75237809     0.86000
O759        O  0.88540412  0.03114285  0.73187760    -0.55900
O760        O  0.88415360  0.46918583  0.76789554    -0.59200
C761        C  0.54936425  0.15540953  0.75353168    -0.04500
C762        C  0.53854392  0.13907928  0.72713910    -0.01600
C763        C  0.51616507  0.10689008  0.72679025     0.03400
C764        C  0.50329764  0.09118793  0.75289248    -0.04500
C765        C  0.51460240  0.10725984  0.77934207    -0.01600
C766        C  0.53810991  0.13875882  0.77963912     0.03400
C767        C  0.55178599  0.15447822  0.70014502     0.38100
C768        C  0.00317118  0.09078171  0.80642233     0.38000
C769        C  0.55057567  0.15403296  0.80691080     0.36500
C770        C  0.50634733  0.09022692  0.69934470     0.36500
N771        N  0.56085711  0.16595576  0.82866225    -0.38400
N772        N  0.49888169  0.07670353  0.67746781    -0.38400
N773        N  0.99405982  0.07770135  0.82802088    -0.37800
N774        N  0.56246272  0.16676638  0.67868580    -0.37800
C775        C  0.54736762  0.34203112  0.74973807    -0.04500
C776        C  0.54240032  0.36299346  0.77519287    -0.01600
C777        C  0.51811728  0.39377653  0.77550134     0.03400
C778        C  0.49949248  0.40483832  0.75003293    -0.04500
C779        C  0.50471197  0.38392826  0.72450495    -0.01600
C780        C  0.52838835  0.35263918  0.72440638     0.03400
C781        C  0.56339866  0.35384344  0.80096584     0.38100
C782        C  0.98640664  0.39484551  0.69797723     0.38000
C783        C  0.53242316  0.33085481  0.69829201     0.36500
C784        C  0.51142735  0.41310513  0.80245263     0.36500
N785        N  0.53561364  0.31346906  0.67746347    -0.38400
N786        N  0.50601412  0.42829454  0.82404098    -0.38400
N787        N  0.97179814  0.40345941  0.67683035    -0.37800
N788        N  0.58028732  0.34672723  0.82144767    -0.37800
C789        C  0.83136191  0.07050437  0.63503835    -0.04500
C790        C  0.83927814  0.03210497  0.63499401    -0.01600
C791        C  0.85922417  0.01606519  0.65808792     0.03400
C792        C  0.87065243  0.03811007  0.68170597    -0.04500
C793        C  0.86212327  0.07629053  0.68199117    -0.01600
C794        C  0.84242321  0.09233762  0.65899945     0.03400
C795        C  0.82748334  0.00900732  0.61106434     0.38100
C796        C  0.87496363  0.09969768  0.70550576     0.38000
C797        C  0.83274577  0.13136870  0.66072054     0.36500
C798        C  0.86741526  0.47673070  0.65763033     0.36500
N799        N  0.82510714  0.16245515  0.66225950    -0.38400
N800        N  0.87390762  0.44534331  0.65704886    -0.38400
N801        N  0.88530081  0.11822830  0.72424784    -0.37800
N802        N  0.81787189  0.49051282  0.59207078    -0.37800
C803        C  0.72222170  0.18152408  0.63568553    -0.04500
C804        C  0.70957495  0.21854388  0.63442387    -0.01600
C805        C  0.68940196  0.23411423  0.65778193     0.03400
C806        C  0.68253700  0.21303708  0.68297956    -0.04500
C807        C  0.69645859  0.17640941  0.68446768    -0.01600
C808        C  0.71620610  0.16087842  0.66115118     0.03400
C809        C  0.71645625  0.24049352  0.60884324     0.38100
C810        C  0.68916500  0.15352222  0.70953447     0.38000
C811        C  0.73080595  0.12349787  0.66380478     0.36500
C812        C  0.67593518  0.27187241  0.65575376     0.36500
N813        N  0.74225652  0.09364267  0.66599443    -0.38400
N814        N  0.66508641  0.30199284  0.65395617    -0.38400
N815        N  0.68343294  0.13517294  0.72940708    -0.37800
N816        N  0.72210337  0.25806236  0.58853039    -0.37800
C817        C  0.61372468  0.10915809  0.48781284    -0.04500
C818        C  0.61762763  0.13433193  0.51105492    -0.01600
C819        C  0.65067344  0.13491927  0.52756498     0.03400
C820        C  0.68036380  0.11043832  0.52113192    -0.04500
C821        C  0.67557875  0.08345982  0.49939252    -0.01600
C822        C  0.64237783  0.08276364  0.48278520     0.03400
C823        C  0.58747641  0.15954054  0.51844843     0.38100
C824        C  0.70556539  0.05764730  0.49308659     0.38000
C825        C  0.63879133  0.05596373  0.45963645     0.36500
C826        C  0.65374419  0.16044498  0.55170347     0.36500
N827        N  0.63603939  0.03449065  0.44122798    -0.38400
N828        N  0.65611650  0.18069454  0.57096096    -0.38400
N829        N  0.72950045  0.03704438  0.48803070    -0.37800
N830        N  0.56362679  0.17978053  0.52452560    -0.37800
C831        C  0.86519821  0.13733933  0.51378284    -0.04500
C832        C  0.89453028  0.16270299  0.51991111    -0.01600
C833        C  0.92762554  0.16272385  0.50307078     0.03400
C834        C  0.93192188  0.13713718  0.48030186    -0.04500
C835        C  0.90186185  0.11347659  0.47309640    -0.01600
C836        C  0.86887916  0.11336926  0.48975425     0.03400
C837        C  0.89173761  0.18759220  0.54437204     0.38100
C838        C  0.90429313  0.09005110  0.44768474     0.38000
C839        C  0.83856402  0.08868506  0.48165447     0.36500
C840        C  0.95763634  0.18838824  0.50971799     0.36500
N841        N  0.81458708  0.06884783  0.47509135    -0.38400
N842        N  0.98137717  0.20912872  0.51496362    -0.38400
N843        N  0.90611243  0.07167177  0.42728378    -0.37800
N844        N  0.88964603  0.20746800  0.56389883    -0.37800
C845        C  0.82617373  0.43630577  0.86510781    -0.04500
C846        C  0.83413063  0.41408579  0.84071498    -0.01600
C847        C  0.85462440  0.42860684  0.81757817     0.03400
C848        C  0.86566002  0.46620161  0.81763691    -0.04500
C849        C  0.85592747  0.48908635  0.84130150    -0.01600
C850        C  0.83656045  0.47406103  0.86511910     0.03400
C851        C  0.82080485  0.37609797  0.83895062     0.38100
C852        C  0.86543218  0.02813744  0.84113493     0.38000
C853        C  0.82860951  0.49717825  0.88997670     0.36500
C854        C  0.86617119  0.40381152  0.79452407     0.36500
N855        N  0.82232685  0.51557168  0.90983577    -0.38400
N856        N  0.87554103  0.38388396  0.77635482    -0.38400
N857        N  0.87287640  0.05934007  0.84105235    -0.37800
N858        N  0.81020139  0.34586447  0.83738996    -0.37800
C859        C  0.71910453  0.32532959  0.86526039    -0.04500
C860        C  0.71237545  0.34514164  0.83949472    -0.01600
C861        C  0.69414382  0.32801339  0.81607391     0.03400
C862        C  0.68149772  0.29092969  0.81810413    -0.04500
C863        C  0.68821039  0.27107567  0.84387983    -0.01600
C864        C  0.70690480  0.28818537  0.86727402     0.03400
C865        C  0.72417058  0.38348795  0.83673406     0.38100
C866        C  0.67644691  0.23276298  0.84638744     0.38000
C867        C  0.71176907  0.26801933  0.89395945     0.36500
C868        C  0.68752682  0.34945743  0.79016990     0.36500
N869        N  0.71541952  0.25198608  0.91529308    -0.38400
N870        N  0.68248506  0.36660423  0.76953976    -0.38400
N871        N  0.66710188  0.20219024  0.84846463    -0.37800
N872        N  0.73323047  0.41411508  0.83442579    -0.37800
C873        C  0.93372614  0.36398704  0.01555874    -0.04500
C874        C  0.90204433  0.34258062  0.02319078    -0.01600
C875        C  0.86888149  0.34442610  0.00657594     0.03400
C876        C  0.86659034  0.36862958  0.98283342    -0.04500
C877        C  0.89847695  0.38953169  0.97492113    -0.01600
C878        C  0.93203121  0.38657679  0.99078423     0.03400
C879        C  0.90273560  0.32015836  0.04900812     0.38100
C880        C  0.89711061  0.41364969  0.95000568     0.38000
C881        C  0.96531114  0.40592353  0.98097132     0.36500
C882        C  0.83651988  0.32259025  0.01469280     0.36500
N883        N  0.99202038  0.42098339  0.97314144    -0.38400
N884        N  0.81068016  0.30513615  0.02109322    -0.38400
N885        N  0.89604898  0.43298521  0.93020244    -0.37800
N886        N  0.90323442  0.30245311  0.06972265    -0.37800
C887        C  0.61126902  0.39349109  0.01230574    -0.04500
C888        C  0.61317630  0.37478134  0.98553671    -0.01600
C889        C  0.64609916  0.37635464  0.96885531     0.03400
C890        C  0.67740692  0.39658495  0.97874214    -0.04500
C891        C  0.67436410  0.41821771  0.00390329    -0.01600
C892        C  0.64141251  0.41667880  0.02071714     0.03400
C893        C  0.58116217  0.35413384  0.97488180     0.38100
C894        C  0.70589911  0.44044868  0.01330914     0.38000
C895        C  0.63964373  0.43738578  0.04746095     0.36500
C896        C  0.64761705  0.35747542  0.94121565     0.36500
N897        N  0.63824020  0.45396668  0.06878409    -0.38400
N898        N  0.64871672  0.34263472  0.91911857    -0.38400
N899        N  0.73111038  0.45817244  0.02073989    -0.37800
N900        N  0.55566773  0.33770957  0.96629521    -0.37800
C901        C  0.92968122  0.03365372  0.31946108    -0.04500
C902        C  0.93950365  0.01243107  0.34385842    -0.01600
C903        C  0.95878972  0.02906462  0.36715097     0.03400
C904        C  0.96910955  0.06685332  0.36597885    -0.04500
C905        C  0.96002040  0.08772677  0.34117639    -0.01600
C906        C  0.93977185  0.07148000  0.31844770     0.03400
C907        C  0.93092595  0.47319313  0.34472839     0.38100
C908        C  0.97257437  0.12581356  0.33828315     0.38000
C909        C  0.92823148  0.09436476  0.29436148     0.36500
C910        C  0.96708996  0.50740908  0.39258794     0.36500
N911        N  0.91889272  0.11248276  0.27517018    -0.38400
N912        N  0.97364930  0.49018986  0.41292583    -0.38400
N913        N  0.98269254  0.15608542  0.33577284    -0.37800
N914        N  0.92443556  0.44180952  0.34552188    -0.37800
C915        C  0.97038487  0.42766220  0.13433995    -0.04500
C916        C  0.99011726  0.44360253  0.15761247    -0.01600
C917        C  0.97035831  0.45935839  0.18098958     0.03400
C918        C  0.93080015  0.45870595  0.18138011    -0.04500
C919        C  0.91118419  0.44290611  0.15797102    -0.01600
C920        C  0.93087799  0.42790421  0.13441514     0.03400
C921        C  0.03068032  0.44204551  0.15819468     0.38100
C922        C  0.87067069  0.44008011  0.15880791     0.38000
C923        C  0.91031174  0.41298929  0.11005091     0.36500
C924        C  0.99076655  0.97659623  0.20444420     0.36500
N925        N  0.89385964  0.40127369  0.09061352    -0.38400
N926        N  0.00708052  0.99046425  0.22308573    -0.38400
N927        N  0.83839713  0.43760073  0.15967330    -0.37800
N928        N  0.56302823  0.94046787  0.15858850    -0.37800
C929        C  0.75120897  0.33851200  0.25381081    -0.04500
C930        C  0.78994655  0.33489404  0.25931533    -0.01600
C931        C  0.81340203  0.36634359  0.25929203     0.03400
C932        C  0.79839822  0.40186608  0.25371356    -0.04500
C933        C  0.75942237  0.40553064  0.24886779    -0.01600
C934        C  0.73594148  0.37407748  0.24923531     0.03400
C935        C  0.80567364  0.29885985  0.26596784     0.38100
C936        C  0.74307671  0.44174580  0.24392662     0.38000
C937        C  0.69607813  0.37842601  0.24431693     0.36500
C938        C  0.85323965  0.36166685  0.26415372     0.36500
N939        N  0.66426735  0.38196572  0.24060229    -0.38400
N940        N  0.88497048  0.35781435  0.26808441    -0.38400
N941        N  0.73002850  0.47058957  0.23988063    -0.37800
N942        N  0.81822839  0.27018903  0.27140881    -0.37800
C943        C  0.80053604  0.08861116  0.24705694    -0.04500
C944        C  0.78613951  0.10374923  0.27291070    -0.01600
C945        C  0.76294288  0.13530213  0.27226542     0.03400
C946        C  0.75361141  0.15199602  0.24573996    -0.04500
C947        C  0.76792773  0.13695874  0.21988530    -0.01600
C948        C  0.79164246  0.10567926  0.22054037     0.03400
C949        C  0.79599835  0.08758039  0.30045498     0.38100
C950        C  0.75894330  0.15410674  0.19254295     0.38000
C951        C  0.80617257  0.09073276  0.19376711     0.36500
C952        C  0.74774203  0.14989339  0.29898625     0.36500
N953        N  0.81784204  0.07897038  0.17236276    -0.38400
N954        N  0.73555041  0.16165293  0.32021890    -0.38400
N955        N  0.75168445  0.16771835  0.17074912    -0.37800
N956        N  0.80384979  0.07468530  0.32238925    -0.37800
C957        C  0.58333899  0.17394603  0.36409204    -0.04500
C958        C  0.58871727  0.15296308  0.33861131    -0.01600
C959        C  0.60802481  0.16821050  0.31493707     0.03400
C960        C  0.62267580  0.20465804  0.31639043    -0.04500
C961        C  0.61736622  0.22556545  0.34196598    -0.01600
C962        C  0.59717156  0.21055825  0.36539942     0.03400
C963        C  0.57355798  0.11571098  0.33625660     0.38100
C964        C  0.63248829  0.26273408  0.34438596     0.38000
C965        C  0.59130067  0.23276596  0.39107440     0.36500
C966        C  0.61373385  0.14548475  0.28946068     0.36500
N967        N  0.58641446  0.25065360  0.41143982    -0.38400
N968        N  0.61813386  0.12725378  0.26920749    -0.38400
N969        N  0.64481279  0.29226420  0.34646084    -0.37800
N970        N  0.56156314  0.08602368  0.33435814    -0.35400
C971        C  0.58535197  0.30689895  0.12759828    -0.04500
C972        C  0.56639449  0.28530768  0.14834683    -0.01600
C973        C  0.58589273  0.27141086  0.17249323     0.03400
C974        C  0.62474498  0.27770975  0.17546243    -0.04500
C975        C  0.64402106  0.29761777  0.15390933    -0.01600
C976        C  0.62447021  0.31191761  0.13004763     0.03400
C977        C  0.52666204  0.27817042  0.14533298     0.38100
C978        C  0.68361717  0.30554728  0.15718699     0.38000
C979        C  0.64483181  0.33142593  0.10767363     0.36500
C980        C  0.56584474  0.25085507  0.19441539     0.36500
N981        N  0.66095532  0.34677601  0.08969731    -0.38400
N982        N  0.54984339  0.23465621  0.21199988    -0.38400
N983        N  0.71512820  0.31205854  0.15999343    -0.37800
N984        N  0.49502252  0.27213558  0.14275676    -0.37800
In985      In  0.68510120  0.74438203  0.24718513     1.36900
C986        C  0.72719341  0.80496688  0.25175389     0.78500
O987        O  0.73347706  0.71148003  0.26316581    -0.60000
O988        O  0.70275647  0.68980443  0.22785616    -0.50900
C989        C  0.64402843  0.72030106  0.29147632     0.71100
O990        O  0.67015529  0.74350938  0.29426649    -0.45800
C991        C  0.64535930  0.76434105  0.20121114     0.75800
O992        O  0.69472224  0.80298106  0.26233007    -0.57600
O993        O  0.67583438  0.74691843  0.19942492    -0.47700
O994        O  0.73778594  0.77603774  0.23896631    -0.54100
C995        C  0.72935212  0.68539195  0.24539800     0.86000
O996        O  0.63807209  0.71082893  0.26574721    -0.55900
O997        O  0.63451706  0.77052891  0.22660127    -0.59200
In998      In  0.86727960  0.49452660  0.25063458     1.36900
C999        C  0.82437563  0.55480855  0.24790629     0.78500
O1000       O  0.81775945  0.96163191  0.23583633    -0.60000
O1001       O  0.85160535  0.93893156  0.26866167    -0.50900
C1002       C  0.90952476  0.97312878  0.20646108     0.71100
O1003       O  0.88135061  0.49376767  0.20370459    -0.45800
C1004       C  0.90857971  0.51717808  0.29495018     0.75800
O1005       O  0.85272347  0.55028009  0.23211305    -0.57600
O1006       O  0.88149423  0.49513452  0.29804363    -0.47700
O1007       O  0.81795750  0.52828174  0.26475817    -0.54100
C1008       C  0.82328189  0.93501155  0.25274599     0.86000
O1009       O  0.91698513  0.96439728  0.23206452    -0.55900
O1010       O  0.91533885  0.52574536  0.26919966    -0.59200
In1011     In  0.77313024  0.88199982  0.93095676     1.36900
C1012       C  0.80831169  0.91882437  0.89049963     0.78500
O1013       O  0.81703781  0.90381841  0.96083056    -0.60000
O1014       O  0.81393078  0.84543510  0.95494264    -0.50900
C1015       C  0.71364337  0.89258574  0.96355328     0.71100
O1016       O  0.73196315  0.91957146  0.95338957    -0.45800
C1017       C  0.73795491  0.84424460  0.88995884     0.75800
O1018       O  0.78378212  0.93443680  0.90611002    -0.57600
O1019       O  0.76132041  0.82875408  0.90660499    -0.47700
O1020       O  0.81582985  0.88586544  0.89726339    -0.54100
C1021       C  0.83120233  0.87255232  0.96609058     0.86000
O1022       O  0.72763818  0.86106576  0.95889445    -0.55900
O1023       O  0.73222238  0.87798938  0.89537719    -0.59200
In1024     In  0.52561543  0.87108127  0.06991377     1.36900
C1025       C  0.99062585  0.90809886  0.11099332     0.78500
O1026       O  0.98394573  0.89550488  0.03994099    -0.60000
O1027       O  0.98154050  0.83731774  0.04673278    -0.50900
C1028       C  0.57938703  0.88630343  0.03228375     0.71100
O1029       O  0.56586806  0.91056701  0.04900626    -0.45800
C1030       C  0.56412343  0.82845279  0.10576101     0.75800
O1031       O  0.51735688  0.92227869  0.09693252    -0.57600
O1032       O  0.53752084  0.81557957  0.09072693    -0.47700
O1033       O  0.98210881  0.87548217  0.10380380    -0.54100
C1034       C  0.96748244  0.86536391  0.03447660     0.86000
O1035       O  0.56451254  0.85468025  0.03450325    -0.55900
O1036       O  0.57106467  0.86222002  0.10160120    -0.59200
In1037     In  0.52618696  0.62239380  0.43020721     1.36900
C1038       C  0.98880631  0.58527218  0.39042213     0.78500
O1039       O  0.98284687  0.60214795  0.46050082    -0.60000
O1040       O  0.98424688  0.66016396  0.45195018    -0.50900
C1041       C  0.58132882  0.61283556  0.46769722     0.71100
O1042       O  0.56604518  0.58580242  0.45479971    -0.45800
C1043       C  0.56391708  0.65686578  0.38920737     0.75800
O1044       O  0.51345115  0.56967123  0.40586787    -0.57600
O1045       O  0.54074249  0.67390467  0.40517302    -0.47700
O1046       O  0.98264162  0.61873812  0.39669505    -0.54100
C1047       C  0.96777566  0.63342601  0.46424681     0.86000
O1048       O  0.56752992  0.64404348  0.46166060    -0.55900
O1049       O  0.56877959  0.62328920  0.39561754    -0.59200
In1050     In  0.77556035  0.62505344  0.57000352     1.36900
C1051       C  0.81220367  0.58849129  0.61026091     0.78500
O1052       O  0.81605805  0.60329169  0.53772368    -0.60000
O1053       O  0.81764236  0.66093908  0.54687425    -0.50900
C1054       C  0.71635686  0.61437291  0.53688616     0.71100
O1055       O  0.73339140  0.58756005  0.54850222    -0.45800
C1056       C  0.74038089  0.66308274  0.61053589     0.75800
O1057       O  0.78731858  0.57291317  0.59499476    -0.57600
O1058       O  0.76352362  0.67867550  0.59372469    -0.47700
O1059       O  0.81913465  0.62155125  0.60342614    -0.54100
C1060       C  0.83187755  0.63401309  0.53317985     0.86000
O1061       O  0.73132658  0.64569141  0.54072327    -0.55900
O1062       O  0.73438229  0.62938787  0.60508112    -0.59200
In1063     In  0.61623251  0.74965408  0.75112339     1.36900
C1064       C  0.57274719  0.68954614  0.75351904     0.78500
O1065       O  0.57203565  0.78600153  0.77035336    -0.60000
O1066       O  0.59411370  0.80091875  0.72967254    -0.50900
C1067       C  0.65960055  0.77410464  0.79390615     0.71100
O1068       O  0.63393827  0.75060634  0.79765004    -0.45800
C1069       C  0.65995407  0.72824751  0.70743600     0.75800
O1070       O  0.60049587  0.69417180  0.76984059    -0.57600
O1071       O  0.63315932  0.75053538  0.70421936    -0.47700
O1072       O  0.56684700  0.71606209  0.73660125    -0.54100
C1073       C  0.57184048  0.80874756  0.74986076     0.86000
O1074       O  0.66401388  0.78341597  0.76797598    -0.55900
O1075       O  0.66509698  0.71857339  0.73318255    -0.59200
In1076     In  0.93316077  0.49947228  0.75026843     1.36900
C1077       C  0.97547246  0.93861527  0.75003806     0.78500
O1078       O  0.98100719  0.53297367  0.73354906    -0.60000
O1079       O  0.95254078  0.55279703  0.77046996    -0.50900
C1080       C  0.89187681  0.52206961  0.70614883     0.71100
O1081       O  0.91881260  0.49989431  0.70297383    -0.45800
C1082       C  0.88852407  0.98046729  0.79336183     0.75800
O1083       O  0.94681364  0.94205896  0.73448158    -0.57600
O1084       O  0.91501881  0.50317030  0.79658940    -0.47700
O1085       O  0.98230600  0.96646309  0.76553373    -0.54100
C1086       C  0.97834650  0.55804187  0.75237689     0.86000
O1087       O  0.88540382  0.53114207  0.73187624    -0.55900
O1088       O  0.88415363  0.96918560  0.76789681    -0.59200
C1089       C  0.54936467  0.65540857  0.75353124    -0.04500
C1090       C  0.53854395  0.63907864  0.72713865    -0.01600
C1091       C  0.51616468  0.60688974  0.72678977     0.03400
C1092       C  0.50329719  0.59118774  0.75289198    -0.04500
C1093       C  0.51460227  0.60725932  0.77934165    -0.01600
C1094       C  0.53811039  0.63875785  0.77963865     0.03400
C1095       C  0.55178602  0.65447762  0.70014454     0.38100
C1096       C  0.00317089  0.59078147  0.80642107     0.38000
C1097       C  0.55057682  0.65403153  0.80691033     0.36500
C1098       C  0.50634657  0.59022669  0.69934425     0.36500
N1099       N  0.56085882  0.66595413  0.82866167    -0.38400
N1100       N  0.49888061  0.57670313  0.67746745    -0.38400
N1101       N  0.99405897  0.57770106  0.82801971    -0.37800
N1102       N  0.56246273  0.66676566  0.67868537    -0.37800
C1103       C  0.54736877  0.84203093  0.74973827    -0.04500
C1104       C  0.54240123  0.86299324  0.77519304    -0.01600
C1105       C  0.51811824  0.89377648  0.77550135     0.03400
C1106       C  0.49949349  0.90483813  0.75003285    -0.04500
C1107       C  0.50471286  0.88392783  0.72450502    -0.01600
C1108       C  0.52838953  0.85263893  0.72440651     0.03400
C1109       C  0.56339909  0.85384309  0.80096611     0.38100
C1110       C  0.98640583  0.89484476  0.69797801     0.38000
C1111       C  0.53242482  0.83085468  0.69829216     0.36500
C1112       C  0.51142820  0.91310519  0.80245242     0.36500
N1113       N  0.53561588  0.81346905  0.67746363    -0.38400
N1114       N  0.50601471  0.92829489  0.82404079    -0.38400
N1115       N  0.97179673  0.90345812  0.67683138    -0.37800
N1116       N  0.58028735  0.84672673  0.82144826    -0.37800
C1117       C  0.83136249  0.57050431  0.63503711    -0.04500
C1118       C  0.83927793  0.53210477  0.63499295    -0.01600
C1119       C  0.85922380  0.51606474  0.65808676     0.03400
C1120       C  0.87065269  0.53810957  0.68170464    -0.04500
C1121       C  0.86212421  0.57629017  0.68198978    -0.01600
C1122       C  0.84242422  0.59233748  0.65899816     0.03400
C1123       C  0.82748197  0.50900705  0.61106348     0.38100
C1124       C  0.87496508  0.59969718  0.70550426     0.38000
C1125       C  0.83274668  0.63136849  0.66071948     0.36500
C1126       C  0.86741669  0.97673157  0.65763116     0.36500
N1127       N  0.82510775  0.66245489  0.66225864    -0.38400
N1128       N  0.87391013  0.94534419  0.65704932    -0.38400
N1129       N  0.88530274  0.61822774  0.72424627    -0.37800
N1130       N  0.81787414  0.99051290  0.59207123    -0.37800
C1131       C  0.72222278  0.68152515  0.63568540    -0.04500
C1132       C  0.70957570  0.71854478  0.63442386    -0.01600
C1133       C  0.68940227  0.73411488  0.65778181     0.03400
C1134       C  0.68253763  0.71303747  0.68297940    -0.04500
C1135       C  0.69645972  0.67641005  0.68446755    -0.01600
C1136       C  0.71620735  0.66087930  0.66115102     0.03400
C1137       C  0.71645685  0.74049480  0.60884326     0.38100
C1138       C  0.68916629  0.65352282  0.70953424     0.38000
C1139       C  0.73080735  0.62349879  0.66380454     0.36500
C1140       C  0.67593465  0.77187249  0.65575364     0.36500
N1141       N  0.74225793  0.59364361  0.66599420    -0.38400
N1142       N  0.66508502  0.80199292  0.65395614    -0.38400
N1143       N  0.68343414  0.63517331  0.72940685    -0.37800
N1144       N  0.72210369  0.75806404  0.58853076    -0.37800
C1145       C  0.61372457  0.60915758  0.48781291    -0.04500
C1146       C  0.61762846  0.63433338  0.51105370    -0.01600
C1147       C  0.65067459  0.63492130  0.52756334     0.03400
C1148       C  0.68036408  0.61043893  0.52113150    -0.04500
C1149       C  0.67557803  0.58345846  0.49939358    -0.01600
C1150       C  0.64237678  0.58276175  0.48278655     0.03400
C1151       C  0.58747812  0.65954329  0.51844628     0.38100
C1152       C  0.70556374  0.55764467  0.49308883     0.38000
C1153       C  0.63878908  0.55595948  0.45963963     0.36500
C1154       C  0.65374642  0.66044947  0.55170030     0.36500
N1155       N  0.63603630  0.53448437  0.44123252    -0.38400
N1156       N  0.65611960  0.68070092  0.57095642    -0.38400
N1157       N  0.72949844  0.53704061  0.48803391    -0.37800
N1158       N  0.56362907  0.67978447  0.52452280    -0.37800
C1159       C  0.86519798  0.63734002  0.51378198    -0.04500
C1160       C  0.89453037  0.66270318  0.51991049    -0.01600
C1161       C  0.92762580  0.66272373  0.50307042     0.03400
C1162       C  0.93192185  0.63713724  0.48030125    -0.04500
C1163       C  0.90186134  0.61347746  0.47309535    -0.01600
C1164       C  0.86887865  0.61337038  0.48975312     0.03400
C1165       C  0.89173762  0.68759256  0.54437139     0.38100
C1166       C  0.90429229  0.59005261  0.44768322     0.38000
C1167       C  0.83856298  0.58868664  0.48165314     0.36500
C1168       C  0.95763690  0.68838722  0.50971813     0.36500
N1169       N  0.81458594  0.56884986  0.47509004    -0.38400
N1170       N  0.98137823  0.70912732  0.51496426    -0.38400
N1171       N  0.90611133  0.57167404  0.42728190    -0.37800
N1172       N  0.88964581  0.70746857  0.56389796    -0.37800
C1173       C  0.82617462  0.93630454  0.86510953    -0.04500
C1174       C  0.83413040  0.91408491  0.84071618    -0.01600
C1175       C  0.85462360  0.92860629  0.81757915     0.03400
C1176       C  0.86566056  0.96620065  0.81763843    -0.04500
C1177       C  0.85592980  0.98908483  0.84130387    -0.01600
C1178       C  0.83656292  0.97405922  0.86512143     0.03400
C1179       C  0.82080458  0.87609722  0.83895187     0.38100
C1180       C  0.86542808  0.52813944  0.84113170     0.38000
C1181       C  0.82861401  0.99717582  0.88997996     0.36500
C1182       C  0.86616813  0.90381154  0.79452400     0.36500
N1183       N  0.82233323  0.01556855  0.90983959    -0.38400
N1184       N  0.87553603  0.88388456  0.77635379    -0.38400
N1185       N  0.87287084  0.55934236  0.84104846    -0.37800
N1186       N  0.81020130  0.84586357  0.83739143    -0.37800
C1187       C  0.71910376  0.82532750  0.86526137    -0.04500
C1188       C  0.71237480  0.84513937  0.83949570    -0.01600
C1189       C  0.69414410  0.82801095  0.81607458     0.03400
C1190       C  0.68149799  0.79092724  0.81810475    -0.04500
C1191       C  0.68821019  0.77107335  0.84388060    -0.01600
C1192       C  0.70690423  0.78818307  0.86727500     0.03400
C1193       C  0.72416866  0.88348637  0.83673541     0.38100
C1194       C  0.67644691  0.73276057  0.84638806     0.38000
C1195       C  0.71176823  0.76801718  0.89396031     0.36500
C1196       C  0.68752810  0.84945465  0.79017025     0.36500
N1197       N  0.71541842  0.75198370  0.91529411    -0.38400
N1198       N  0.68248729  0.86660120  0.76953979    -0.38400
N1199       N  0.66710214  0.70218776  0.84846508    -0.37800
N1200       N  0.73322716  0.91411368  0.83442753    -0.37800
C1201       C  0.93372488  0.86398513  0.01556022    -0.04500
C1202       C  0.90204353  0.84257750  0.02319166    -0.01600
C1203       C  0.86888062  0.84442321  0.00657698     0.03400
C1204       C  0.86658846  0.86862801  0.98283534    -0.04500
C1205       C  0.89847464  0.88953123  0.97492365    -0.01600
C1206       C  0.93202906  0.88657604  0.99078638     0.03400
C1207       C  0.90273567  0.82015362  0.04900808     0.38100
C1208       C  0.89710755  0.91365058  0.95000888     0.38000
C1209       C  0.96530871  0.90592361  0.98097355     0.36500
C1210       C  0.83651951  0.82258581  0.01469319     0.36500
N1211       N  0.99201754  0.92098399  0.97314380    -0.38400
N1212       N  0.81068067  0.80513065  0.02109302    -0.38400
N1213       N  0.89604536  0.93298696  0.93020633    -0.37800
N1214       N  0.90323524  0.80244683  0.06972185    -0.37800
C1215       C  0.61126736  0.89348990  0.01230528    -0.04500
C1216       C  0.61317412  0.87478109  0.98553587    -0.01600
C1217       C  0.64609668  0.87635502  0.96885421     0.03400
C1218       C  0.67740467  0.89658465  0.97874130    -0.04500
C1219       C  0.67436242  0.91821651  0.00390296    -0.01600
C1220       C  0.64141101  0.91667717  0.02071700     0.03400
C1221       C  0.58115988  0.85413362  0.97488100     0.38100
C1222       C  0.70589765  0.94044659  0.01330916     0.38000
C1223       C  0.63964308  0.93738246  0.04746159     0.36500
C1224       C  0.64761402  0.85747714  0.94121390     0.36500
N1225       N  0.63824022  0.95396179  0.06878556    -0.38400
N1226       N  0.64871313  0.84263777  0.91911640    -0.38400
N1227       N  0.73110928  0.95816997  0.02074030    -0.37800
N1228       N  0.55566549  0.83770935  0.96629454    -0.37800
C1229       C  0.92968181  0.53365231  0.31946125    -0.04500
C1230       C  0.93950382  0.51242997  0.34385889    -0.01600
C1231       C  0.95879040  0.52906344  0.36715120     0.03400
C1232       C  0.96911109  0.56685187  0.36597860    -0.04500
C1233       C  0.96002261  0.58772510  0.34117583    -0.01600
C1234       C  0.93977350  0.57147834  0.31844743     0.03400
C1235       C  0.93092683  0.97319408  0.34472735     0.38100
C1236       C  0.97257774  0.62581130  0.33828202     0.38000
C1237       C  0.92823349  0.59436303  0.29436108     0.36500
C1238       C  0.96708939  0.00741005  0.39258765     0.36500
N1239       N  0.91889498  0.61248112  0.27516973    -0.38400
N1240       N  0.97364875  0.99019077  0.41292540    -0.38400
N1241       N  0.98269699  0.65608296  0.33577114    -0.37800
N1242       N  0.92443725  0.94181014  0.34552037    -0.37800
C1243       C  0.97038549  0.92766234  0.13433967    -0.04500
C1244       C  0.99011776  0.94360307  0.15761215    -0.01600
C1245       C  0.97035849  0.95935919  0.18098906     0.03400
C1246       C  0.93080030  0.95870731  0.18137917    -0.04500
C1247       C  0.91118458  0.94290769  0.15796982    -0.01600
C1248       C  0.93087868  0.92790513  0.13441436     0.03400
C1249       C  0.03068060  0.94204663  0.15819435     0.38100
C1250       C  0.87067095  0.94008270  0.15880598     0.38000
C1251       C  0.91031276  0.91299037  0.11004985     0.36500
C1252       C  0.99076650  0.47659593  0.20444443     0.36500
N1253       N  0.89386101  0.90127482  0.09061235    -0.38400
N1254       N  0.00708057  0.49046448  0.22308561    -0.38400
N1255       N  0.83839736  0.93760434  0.15967072    -0.37800
N1256       N  0.56302710  0.44046837  0.15858784    -0.37800
C1257       C  0.75121016  0.83851317  0.25381159    -0.04500
C1258       C  0.78994849  0.83489513  0.25931338    -0.01600
C1259       C  0.81340382  0.86634472  0.25928923     0.03400
C1260       C  0.79839914  0.90186750  0.25371357    -0.04500
C1261       C  0.75942261  0.90553229  0.24887081    -0.01600
C1262       C  0.73594209  0.87407888  0.24923852     0.03400
C1263       C  0.80567628  0.79886074  0.26596421     0.38100
C1264       C  0.74307635  0.94174775  0.24393268     0.38000
C1265       C  0.69607803  0.87842750  0.24432276     0.36500
C1266       C  0.85324244  0.86166777  0.26414685     0.36500
N1267       N  0.66426704  0.88196721  0.24061024    -0.38400
N1268       N  0.88497385  0.85781520  0.26807410    -0.38400
N1269       N  0.73002769  0.97059209  0.23988922    -0.37800
N1270       N  0.81823151  0.77018985  0.27140404    -0.37800
C1271       C  0.80053343  0.58860834  0.24705797    -0.04500
C1272       C  0.78613672  0.60374666  0.27291168    -0.01600
C1273       C  0.76294118  0.63530029  0.27226621     0.03400
C1274       C  0.75361030  0.65199451  0.24574080    -0.04500
C1275       C  0.76792543  0.63695604  0.21988609    -0.01600
C1276       C  0.79163934  0.60567602  0.22054132     0.03400
C1277       C  0.79599366  0.58757673  0.30045591     0.38100
C1278       C  0.75894000  0.65410315  0.19254359     0.38000
C1279       C  0.80616762  0.59072785  0.19376793     0.36500
C1280       C  0.74774011  0.64989199  0.29898695     0.36500
N1281       N  0.81783538  0.57896408  0.17236358    -0.38400
N1282       N  0.73554821  0.66165164  0.32021933    -0.38400
N1283       N  0.75168027  0.66771377  0.17074955    -0.37800
N1284       N  0.80384336  0.57468069  0.32239027    -0.37800
C1285       C  0.58334011  0.67394610  0.36409325    -0.04500
C1286       C  0.58871837  0.65296392  0.33861211    -0.01600
C1287       C  0.60802568  0.66821206  0.31493808     0.03400
C1288       C  0.62267697  0.70465945  0.31639212    -0.04500
C1289       C  0.61736789  0.72556593  0.34196816    -0.01600
C1290       C  0.59717341  0.71055804  0.36540140     0.03400
C1291       C  0.57355972  0.61571156  0.33625697     0.38100
C1292       C  0.63249075  0.76273441  0.34438885     0.38000
C1293       C  0.59130429  0.73276424  0.39107755     0.36500
C1294       C  0.61373464  0.64548716  0.28946122     0.36500
N1295       N  0.58641977  0.75065033  0.41144387    -0.38400
N1296       N  0.61813471  0.62725687  0.26920765    -0.38400
N1297       N  0.64481563  0.79226400  0.34646445    -0.37800
N1298       N  0.56156565  0.58602406  0.33435815    -0.35400
C1299       C  0.58535412  0.80689835  0.12759876    -0.04500
C1300       C  0.56639729  0.78530451  0.14834605    -0.01600
C1301       C  0.58589532  0.77140790  0.17249262     0.03400
C1302       C  0.62474693  0.77770949  0.17546316    -0.04500
C1303       C  0.64402267  0.79761972  0.15391119    -0.01600
C1304       C  0.62447192  0.81191965  0.13004945     0.03400
C1305       C  0.52666534  0.77816495  0.14533100     0.38100
C1306       C  0.68361826  0.80555112  0.15719010     0.38000
C1307       C  0.64483319  0.83143132  0.10767706     0.36500
C1308       C  0.56584785  0.75084958  0.19441361     0.36500
N1309       N  0.66095649  0.84678438  0.08970220    -0.38400
N1310       N  0.54984681  0.73464856  0.21199708    -0.38400
N1311       N  0.71512880  0.81206385  0.15999754    -0.37800
N1312       N  0.49502638  0.77212864  0.14275377    -0.37800
loop_ 
_geom_bond_atom_site_label_1 
_geom_bond_atom_site_label_2 
_geom_bond_distance 
_geom_bond_site_symmetry_2 
_ccdc_geom_bond_type 
In1           O3   2.228       .  S
In1           O4   2.254       .  S
In1          O12   2.245       .  S
In1           O6   2.252       .  S
In1           O8   2.254       .  S
In1           O9   2.247       .  S
In1          O10   2.235       .  S
In1          O13   2.255       .  S
C2            O8   1.262       .  A
C2           O10   1.259       .  A
C2          C273   1.487       .  S
O3           C11   1.259       .  A
O4           C11   1.263       .  A
C5           O12   1.261       .  A
C5            O6   1.261       .  A
C5          C304   1.498       .  S
C7            O9   1.261       .  A
C7           O13   1.261       .  A
C7          C318   1.488       .  S
C11         C290   1.486       .  S
In14         O19   2.238       .  S
In14         O21   2.254   1_565  S
In14         O22   2.262       .  S
In14         O23   2.240   1_565  S
In14         O26   2.227   1_565  S
In14        O344   2.239       .  S
In14        O345   2.249       .  S
In14        O353   2.253       .  S
C15          O21   1.261       .  A
C15          O23   1.260       .  A
C15         C287   1.490       .  S
O16        In342   2.239       .  S
O16          C24   1.259       .  A
O17        In342   2.249       .  S
O17          C24   1.262       .  A
C18          O25   1.261       .  A
C18         O347   1.260       .  A
C18         C262   1.484       .  S
O19         C346   1.260       .  A
C20          O22   1.261   1_545  A
C20          O26   1.260       .  A
C20         C245   1.489       .  S
C24         C276   1.492       .  S
O25        In342   2.253       .  S
In27         O29   2.238       .  S
In27         O30   2.265       .  S
In27         O38   2.214       .  S
In27         O32   2.255       .  S
In27         O34   2.253       .  S
In27         O35   2.268       .  S
In27         O36   2.190       .  S
In27         O39   2.213       .  S
C28          O34   1.269       .  A
C28          O36   1.261       .  A
C28         C189   1.484       .  S
O29          C37   1.262       .  A
O30          C37   1.267       .  A
C31          O38   1.262       .  A
C31          O32   1.266       .  A
C31         C234   1.481       .  S
C33          O35   1.270       .  A
C33          O39   1.260       .  A
C33         C203   1.495       .  S
C37         C220   1.493       .  S
In40         O51   2.232       .  S
In40         O45   2.247       .  S
In40         O47   2.251       .  S
In40         O48   2.269       .  S
In40         O52   2.218       .  S
In40        O698   2.225   1_455  S
In40        O699   2.263   1_455  S
In40        O705   2.218   1_455  S
C41          O49   1.261       .  A
C41         O703   1.266       .  A
C41         C259   1.481       .  S
O42        In696   2.225       .  S
O42          C50   1.262       .  A
O43        In696   2.263       .  S
O43          C50   1.268       .  A
C44          O51   1.264       .  A
C44          O45   1.265       .  A
C44         C231   1.492       .  S
C46          O48   1.268       .  A
C46          O52   1.260       .  A
C46         C315   1.490       .  S
O47         C697   1.266   1_455  A
O49        In696   2.218       .  S
C50         C217   1.494       .  S
In53         O64   2.220       .  S
In53         O58   2.258       .  S
In53         O60   2.258       .  S
In53         O61   2.258       .  S
In53         O65   2.213       .  S
In53        O711   2.217   1_455  S
In53        O712   2.263   1_455  S
In53        O718   2.206   1_455  S
C54          O62   1.262       .  A
C54         O716   1.270       .  A
C54         C248   1.492       .  S
O55        In709   2.217       .  S
O55          C63   1.263       .  A
O56        In709   2.263       .  S
O56          C63   1.268       .  A
C57          O64   1.263       .  A
C57          O58   1.268       .  A
C57         C161   1.495       .  S
C59          O61   1.270       .  A
C59          O65   1.262       .  A
C59         C301   1.492       .  S
O60         C710   1.270   1_455  A
O62        In709   2.206       .  S
C63         C178   1.488       .  S
In66         O68   2.225       .  S
In66         O69   2.258       .  S
In66         O77   2.218       .  S
In66         O71   2.257       .  S
In66         O73   2.256       .  S
In66         O74   2.267       .  S
In66         O75   2.205       .  S
In66         O78   2.200       .  S
C67          O73   1.268       .  A
C67          O75   1.261       .  A
C67         C133   1.491       .  S
O68          C76   1.263       .  A
O69          C76   1.267       .  A
C70          O77   1.263       .  A
C70          O71   1.267       .  A
C70         C164   1.487       .  S
C72          O74   1.270       .  A
C72          O78   1.261       .  A
C72         C147   1.492       .  S
C76         C175   1.498       .  S
In79         O81   2.238       .  S
In79         O82   2.250       .  S
In79         O90   2.238       .  S
In79         O84   2.254       .  S
In79         O86   2.258       .  S
In79         O87   2.262       .  S
In79         O88   2.244       .  S
In79         O91   2.236       .  S
C80          O86   1.260       .  A
C80          O88   1.259       .  A
C80         C105   1.489       .  S
O81          C89   1.260       .  A
O82          C89   1.261       .  A
C83          O90   1.262       .  A
C83          O84   1.261       .  A
C83         C206   1.498       .  S
C85          O87   1.261       .  A
C85          O91   1.261       .  A
C85         C150   1.497       .  S
C89         C119   1.487       .  S
In92         O94   2.234   1_565  S
In92         O95   2.249   1_565  S
In92        O103   2.228   1_565  S
In92         O97   2.258       .  S
In92        O100   2.251   1_565  S
In92        O427   2.251       .  S
In92        O429   2.241       .  S
In92        O432   2.222       .  S
C93          O99   1.261       .  A
C93         O101   1.259       .  A
C93         C778   1.492       .  S
O94         C102   1.261       .  A
O95         C102   1.262       .  A
C96         O103   1.260       .  A
C96          O97   1.261   1_545  A
C96         C136   1.486       .  S
C98         O104   1.260       .  A
C98         O428   1.261       .  A
C98         C192   1.486       .  S
O99        In420   2.251       .  S
O100        C426   1.261   1_545  A
O101       In420   2.241       .  S
C102        C764   1.492       .  S
O104       In420   2.222       .  S
C105        C106   1.413       .  A
C105        C110   1.414       .  A
C106        C107   1.411       .  A
C106        C111   1.453       .  S
C107        C108   1.417       .  A
C107        C114   1.452       .  S
C108        C758   1.492   1_455  S
C108        C109   1.417       .  A
C109        C110   1.414       .  A
C109        C768   1.452       .  S
C110        C113   1.451       .  S
C111        N118   1.157       .  T
C112        C765   1.452       .  S
C112        N117   1.157       .  T
C113        N115   1.158       .  T
C114        N116   1.158   1_455  T
C119        C120   1.414       .  A
C119        C124   1.413       .  A
C120        C121   1.411       .  A
C120        C125   1.453       .  S
C121        C122   1.417   1_455  A
C121        C128   1.452       .  S
C122        C749   1.492       .  S
C122        C123   1.417   1_655  A
C123        C124   1.412       .  A
C123        C782   1.452   1_455  S
C124        C127   1.451       .  S
C125        N132   1.157       .  T
C126        C779   1.452       .  S
C126        N131   1.157       .  T
C127        N129   1.158       .  T
C128        N130   1.158       .  T
C133        C134   1.416       .  A
C133        C138   1.419       .  A
C134        C135   1.415       .  A
C134        C139   1.451       .  S
C135        C136   1.414       .  A
C135        C470   1.451   1_545  S
C136        C137   1.412       .  A
C137        C138   1.407       .  A
C137        C140   1.454       .  S
C138        C141   1.454       .  S
C139        N474   1.157   1_545  T
C140        N145   1.157       .  T
C141        N143   1.158       .  T
C142        C463   1.451       .  S
C142        N144   1.157       .  T
N146        C467   1.157       .  T
C147        C148   1.413       .  A
C147        C152   1.417       .  A
C148        C149   1.418       .  A
C148        C153   1.452       .  S
C149        C150   1.420       .  A
C149        C156   1.450       .  S
C150        C151   1.416       .  A
C151        C152   1.408       .  A
C151        C154   1.454       .  S
C152        C155   1.453       .  S
C153        N160   1.157       .  T
C154        N159   1.157       .  T
C155        N157   1.158       .  T
C156        N158   1.158       .  T
C161        C162   1.417       .  A
C161        C166   1.418       .  A
C162        C163   1.409       .  A
C162        C167   1.451       .  S
C163        C164   1.413       .  A
C163        C170   1.454       .  S
C164        C165   1.412       .  A
C165        C166   1.416       .  A
C165        C168   1.450       .  S
C166        C169   1.451       .  S
C167        N174   1.157       .  T
C168        N173   1.158       .  T
C169        N171   1.157       .  T
C170        N172   1.157       .  T
C175        C176   1.420       .  A
C175        C180   1.417       .  A
C176        C177   1.418       .  A
C176        C181   1.450       .  S
C177        C178   1.411       .  A
C177        C184   1.450       .  S
C178        C179   1.412       .  A
C179        C180   1.410       .  A
C179        C182   1.453       .  S
C180        C183   1.452       .  S
C181        N188   1.158       .  T
C182        N187   1.157       .  T
C183        N185   1.157       .  T
C184        N186   1.157       .  T
C189        C190   1.416       .  A
C189        C194   1.413       .  A
C190        C191   1.403       .  A
C190        C195   1.454       .  S
C191        C192   1.414       .  A
C191        C198   1.454       .  S
C192        C193   1.417       .  A
C193        C194   1.414       .  A
C193        C524   1.451       .  S
C194        C197   1.451       .  S
C195        N202   1.158       .  T
C196        C521   1.451   1_545  S
C196        N201   1.158       .  T
C197        N199   1.157       .  T
C198        N200   1.157       .  T
C203        C204   1.418       .  A
C203        C208   1.414       .  A
C204        C205   1.410       .  A
C204        C209   1.453       .  S
C205        C206   1.417       .  A
C205        C212   1.453       .  S
C206        C207   1.419       .  A
C207        C208   1.417       .  A
C207        C210   1.451       .  S
C208        C211   1.451       .  S
C209        N216   1.158       .  T
C210        N215   1.158       .  T
C211        N213   1.157       .  T
C212        N214   1.157       .  T
C217        C218   1.416       .  A
C217        C222   1.415   1_554  A
C218        C219   1.417       .  A
C218        C223   1.450       .  S
C219        C220   1.412   1_554  A
C219        C226   1.450       .  S
C220        C221   1.416       .  A
C221        C222   1.413       .  A
C221        C224   1.452       .  S
C222        C225   1.453       .  S
C223        N230   1.158       .  T
C224        N229   1.158       .  T
C225        N227   1.157       .  T
C226        N228   1.157       .  T
C231        C232   1.415   1_554  A
C231        C236   1.419       .  A
C232        C233   1.410       .  A
C232        C237   1.452       .  S
C233        C234   1.412       .  A
C233        C240   1.453       .  S
C234        C235   1.408   1_556  A
C235        C236   1.414       .  A
C235        C238   1.450       .  S
C236        C239   1.450       .  S
C237        N244   1.158       .  T
C238        N243   1.157       .  T
C239        N241   1.157       .  T
C240        N242   1.158       .  T
C245        C246   1.415       .  A
C245        C250   1.414       .  A
C246        C247   1.416       .  A
C246        C579   1.450   1_545  S
C247        C248   1.415       .  A
C247        C582   1.451       .  S
C248        C249   1.417       .  A
C249        C250   1.407       .  A
C249        C252   1.453       .  S
C250        C253   1.454       .  S
C251        C574   1.450       .  S
C251        N258   1.157       .  T
C252        N257   1.158       .  T
C253        N255   1.157       .  T
C254        C575   1.451       .  S
C254        N256   1.157       .  T
C259        C260   1.413       .  A
C259        C264   1.412       .  A
C260        C261   1.413       .  A
C260        C265   1.451       .  S
C261        C262   1.414       .  A
C261        C596   1.451       .  S
C262        C263   1.413       .  A
C263        C264   1.408       .  A
C263        C266   1.452       .  S
C264        C267   1.452       .  S
C265       N1256   1.158       .  T
C266        N271   1.158       .  T
C267        N269   1.157       .  T
C268        C589   1.451       .  S
C268        N270   1.157       .  T
N272       C1249   1.158       .  T
C273        C274   1.414       .  A
C273        C278   1.413       .  A
C274        C275   1.411       .  A
C274        C279   1.452       .  S
C275        C276   1.416       .  A
C275        C282   1.452       .  S
C276        C277   1.418       .  A
C277        C278   1.412       .  A
C277        C280   1.452       .  S
C278        C281   1.452       .  S
C279        N286   1.158       .  T
C280        N285   1.158       .  T
C281        N283   1.157       .  T
C282        N284   1.157       .  T
C287        C288   1.415       .  A
C287        C292   1.416       .  A
C288        C289   1.410       .  A
C288        C293   1.453       .  S
C289        C290   1.414       .  A
C289        C296   1.453       .  S
C290        C291   1.413       .  A
C291        C292   1.413       .  A
C291        C294   1.452       .  S
C292        C295   1.451       .  S
C293        N300   1.157       .  T
C294        N299   1.157       .  T
C295        N297   1.158       .  T
C296        N298   1.158       .  T
C301        C302   1.417       .  A
C301        C306   1.413       .  A
C302        C303   1.411       .  A
C302        C307   1.454       .  S
C303        C304   1.418       .  A
C303        C310   1.453       .  S
C304        C305   1.419       .  A
C305        C306   1.415       .  A
C305        C308   1.451       .  S
C306        C309   1.451       .  S
C307        N314   1.158       .  T
C308        N313   1.157       .  T
C309        N311   1.157       .  T
C310        N312   1.158       .  T
C315        C316   1.414       .  A
C315        C320   1.414       .  A
C316        C317   1.415       .  A
C316        C321   1.450       .  S
C317        C318   1.414       .  A
C317        C324   1.451       .  S
C318        C319   1.413       .  A
C319        C320   1.411       .  A
C319        C322   1.452       .  S
C320        C323   1.453       .  S
C321        N328   1.158   1_455  T
C322        N327   1.158       .  T
C323        N325   1.157       .  T
C324        N326   1.157       .  T
In329       O331   2.228       .  S
In329       O332   2.254       .  S
In329       O340   2.245       .  S
In329       O334   2.252       .  S
In329       O336   2.254       .  S
In329       O337   2.247       .  S
In329       O338   2.235       .  S
In329       O341   2.255       .  S
C330        O336   1.262       .  A
C330        O338   1.259       .  A
C330        C601   1.487       .  S
O331        C339   1.259       .  A
O332        C339   1.263       .  A
C333        O340   1.261       .  A
C333        O334   1.261       .  A
C333        C632   1.498       .  S
C335        O337   1.261       .  A
C335        O341   1.261       .  A
C335        C646   1.488       .  S
C339        C618   1.486       .  S
In342       O347   2.238       .  S
In342       O349   2.254       .  S
In342       O350   2.262       .  S
In342       O351   2.240       .  S
In342       O354   2.227       .  S
C343        O349   1.261       .  A
C343        O351   1.260       .  A
C343        C615   1.490       .  S
O344        C352   1.259       .  A
O345        C352   1.262       .  A
C346        O353   1.261       .  A
C346        C590   1.484       .  S
C348        O350   1.261       .  A
C348        O354   1.260       .  A
C348        C573   1.489       .  S
C352        C604   1.492       .  S
In355       O357   2.238       .  S
In355       O358   2.265       .  S
In355       O366   2.214       .  S
In355       O360   2.255       .  S
In355       O362   2.253       .  S
In355       O363   2.268       .  S
In355       O364   2.190       .  S
In355       O367   2.213       .  S
C356        O362   1.269       .  A
C356        O364   1.261       .  A
C356        C517   1.484       .  S
O357        C365   1.262       .  A
O358        C365   1.267       .  A
C359        O366   1.262       .  A
C359        O360   1.266       .  A
C359        C562   1.481       .  S
C361        O363   1.270       .  A
C361        O367   1.261       .  A
C361        C531   1.495       .  S
C365        C548   1.493       .  S
In368      O1026   2.225   1_455  S
In368      O1027   2.263   1_455  S
In368       O379   2.232       .  S
In368       O373   2.247       .  S
In368       O375   2.251       .  S
In368       O376   2.269       .  S
In368      O1033   2.218   1_455  S
In368       O380   2.218       .  S
C369       O1031   1.266       .  A
C369        O377   1.261       .  A
C369        C587   1.481       .  S
O370      In1024   2.225       .  S
O370        C378   1.262       .  A
O371      In1024   2.263       .  S
O371        C378   1.268       .  A
C372        O379   1.264       .  A
C372        O373   1.265       .  A
C372        C559   1.492       .  S
C374        O376   1.268       .  A
C374        O380   1.260       .  A
C374        C643   1.490       .  S
O375       C1025   1.266   1_455  A
O377      In1024   2.218       .  S
C378        C545   1.494       .  S
In381      O1039   2.217   1_455  S
In381      O1040   2.263   1_455  S
In381       O392   2.220       .  S
In381       O386   2.258       .  S
In381       O388   2.258       .  S
In381       O389   2.258       .  S
In381      O1046   2.206   1_455  S
In381       O393   2.213       .  S
C382       O1044   1.270       .  A
C382        O390   1.262       .  A
C382        C576   1.492       .  S
O383      In1037   2.217       .  S
O383        C391   1.263       .  A
O384      In1037   2.263       .  S
O384        C391   1.268       .  A
C385        O392   1.263       .  A
C385        O386   1.268       .  A
C385        C489   1.495       .  S
C387        O389   1.270       .  A
C387        O393   1.262       .  A
C387        C629   1.492       .  S
O388       C1038   1.270   1_455  A
O390      In1037   2.206       .  S
C391        C506   1.488       .  S
In394       O396   2.225       .  S
In394       O397   2.258       .  S
In394       O405   2.218       .  S
In394       O399   2.257       .  S
In394       O401   2.256       .  S
In394       O402   2.267       .  S
In394       O403   2.205       .  S
In394       O406   2.200       .  S
C395        O401   1.268       .  A
C395        O403   1.261       .  A
C395        C461   1.491       .  S
O396        C404   1.263       .  A
O397        C404   1.267       .  A
C398        O405   1.263       .  A
C398        O399   1.267       .  A
C398        C492   1.487       .  S
C400        O402   1.270       .  A
C400        O406   1.261       .  A
C400        C475   1.492       .  S
C404        C503   1.498       .  S
In407       O409   2.238       .  S
In407       O410   2.250       .  S
In407       O418   2.238       .  S
In407       O412   2.254       .  S
In407       O414   2.258       .  S
In407       O415   2.262       .  S
In407       O416   2.244       .  S
In407       O419   2.236       .  S
C408        O414   1.260       .  A
C408        O416   1.259       .  A
C408        C433   1.489       .  S
O409        C417   1.260       .  A
O410        C417   1.261       .  A
C411        O418   1.262       .  A
C411        O412   1.261       .  A
C411        C534   1.498       .  S
C413        O415   1.261       .  A
C413        O419   1.261       .  A
C413        C478   1.497       .  S
C417        C447   1.487       .  S
In420       O422   2.234       .  S
In420       O423   2.249       .  S
In420       O431   2.228       .  S
In420       O425   2.258       .  S
In420       O428   2.251       .  S
C421        O427   1.261       .  A
C421        O429   1.259       .  A
C421       C1106   1.492       .  S
O422        C430   1.261       .  A
O423        C430   1.262       .  A
C424        O431   1.260       .  A
C424        O425   1.261       .  A
C424        C464   1.486       .  S
C426        O432   1.260       .  A
C426        C520   1.486       .  S
C430       C1092   1.492       .  S
C433        C434   1.413       .  A
C433        C438   1.414       .  A
C434        C435   1.411       .  A
C434        C439   1.453       .  S
C435        C436   1.417       .  A
C435        C442   1.452       .  S
C436       C1086   1.492   1_455  S
C436        C437   1.417       .  A
C437        C438   1.414       .  A
C437       C1096   1.452       .  S
C438        C441   1.451       .  S
C439        N446   1.157       .  T
C440       C1093   1.452       .  S
C440        N445   1.157       .  T
C441        N443   1.158       .  T
C442        N444   1.158   1_455  T
C447        C448   1.414       .  A
C447        C452   1.413       .  A
C448        C449   1.411       .  A
C448        C453   1.453       .  S
C449        C450   1.417   1_455  A
C449        C456   1.452       .  S
C450       C1077   1.492       .  S
C450        C451   1.417   1_655  A
C451        C452   1.412       .  A
C451       C1110   1.452   1_455  S
C452        C455   1.451       .  S
C453        N460   1.157       .  T
C454       C1107   1.452       .  S
C454        N459   1.157       .  T
C455        N457   1.158       .  T
C456        N458   1.158       .  T
C461        C462   1.416       .  A
C461        C466   1.419       .  A
C462        C463   1.415       .  A
C462        C467   1.451       .  S
C463        C464   1.414       .  A
C464        C465   1.412       .  A
C465        C466   1.407       .  A
C465        C468   1.454       .  S
C466        C469   1.454       .  S
C468        N473   1.157       .  T
C469        N471   1.158       .  T
C470        N472   1.157       .  T
C475        C476   1.413       .  A
C475        C480   1.417       .  A
C476        C477   1.418       .  A
C476        C481   1.452       .  S
C477        C478   1.420       .  A
C477        C484   1.450       .  S
C478        C479   1.416       .  A
C479        C480   1.408       .  A
C479        C482   1.454       .  S
C480        C483   1.453       .  S
C481        N488   1.157       .  T
C482        N487   1.157       .  T
C483        N485   1.158       .  T
C484        N486   1.158       .  T
C489        C490   1.417       .  A
C489        C494   1.418       .  A
C490        C491   1.409       .  A
C490        C495   1.451       .  S
C491        C492   1.413       .  A
C491        C498   1.454       .  S
C492        C493   1.412       .  A
C493        C494   1.416       .  A
C493        C496   1.450       .  S
C494        C497   1.451       .  S
C495        N502   1.157       .  T
C496        N501   1.158       .  T
C497        N499   1.157       .  T
C498        N500   1.157       .  T
C503        C504   1.420       .  A
C503        C508   1.417       .  A
C504        C505   1.418       .  A
C504        C509   1.450       .  S
C505        C506   1.411       .  A
C505        C512   1.450       .  S
C506        C507   1.412       .  A
C507        C508   1.410       .  A
C507        C510   1.453       .  S
C508        C511   1.452       .  S
C509        N516   1.158       .  T
C510        N515   1.157       .  T
C511        N513   1.157       .  T
C512        N514   1.157       .  T
C517        C518   1.416       .  A
C517        C522   1.413       .  A
C518        C519   1.403       .  A
C518        C523   1.454       .  S
C519        C520   1.414       .  A
C519        C526   1.454       .  S
C520        C521   1.417       .  A
C521        C522   1.414       .  A
C522        C525   1.451       .  S
C523        N530   1.158       .  T
C524        N529   1.158       .  T
C525        N527   1.157   1_565  T
C526        N528   1.157       .  T
C531        C532   1.418       .  A
C531        C536   1.414       .  A
C532        C533   1.410       .  A
C532        C537   1.453       .  S
C533        C534   1.417       .  A
C533        C540   1.453       .  S
C534        C535   1.419       .  A
C535        C536   1.417       .  A
C535        C538   1.451       .  S
C536        C539   1.451       .  S
C537        N544   1.158       .  T
C538        N543   1.158       .  T
C539        N541   1.157       .  T
C540        N542   1.157       .  T
C545        C546   1.416       .  A
C545        C550   1.415   1_554  A
C546        C547   1.417       .  A
C546        C551   1.450       .  S
C547        C548   1.412   1_554  A
C547        C554   1.450       .  S
C548        C549   1.416       .  A
C549        C550   1.413       .  A
C549        C552   1.452       .  S
C550        C553   1.453       .  S
C551        N558   1.158       .  T
C552        N557   1.158       .  T
C553        N555   1.157       .  T
C554        N556   1.157       .  T
C559        C560   1.415   1_554  A
C559        C564   1.419       .  A
C560        C561   1.410       .  A
C560        C565   1.452       .  S
C561        C562   1.412       .  A
C561        C568   1.453       .  S
C562        C563   1.408   1_556  A
C563        C564   1.414       .  A
C563        C566   1.450       .  S
C564        C567   1.450       .  S
C565        N572   1.158       .  T
C566        N571   1.157       .  T
C567        N569   1.157       .  T
C568        N570   1.158       .  T
C573        C574   1.415       .  A
C573        C578   1.414       .  A
C574        C575   1.416       .  A
C575        C576   1.415       .  A
C576        C577   1.417       .  A
C577        C578   1.407       .  A
C577        C580   1.453       .  S
C578        C581   1.454       .  S
C579        N586   1.157       .  T
C580        N585   1.158       .  T
C581        N583   1.157       .  T
C582        N584   1.157   1_545  T
C587        C588   1.413       .  A
C587        C592   1.412       .  A
C588        C589   1.413       .  A
C588        C593   1.451       .  S
C589        C590   1.414       .  A
C590        C591   1.413       .  A
C591        C592   1.408       .  A
C591        C594   1.452       .  S
C592        C595   1.452       .  S
C593        N928   1.158       .  T
C594        N599   1.158       .  T
C595        N597   1.157       .  T
C596        N598   1.157       .  T
N600        C921   1.158       .  T
C601        C602   1.414       .  A
C601        C606   1.413       .  A
C602        C603   1.411       .  A
C602        C607   1.452       .  S
C603        C604   1.416       .  A
C603        C610   1.452       .  S
C604        C605   1.418       .  A
C605        C606   1.412       .  A
C605        C608   1.452       .  S
C606        C609   1.452       .  S
C607        N614   1.158       .  T
C608        N613   1.158       .  T
C609        N611   1.157       .  T
C610        N612   1.157       .  T
C615        C616   1.415       .  A
C615        C620   1.416       .  A
C616        C617   1.410       .  A
C616        C621   1.453       .  S
C617        C618   1.414       .  A
C617        C624   1.453       .  S
C618        C619   1.413       .  A
C619        C620   1.413       .  A
C619        C622   1.452       .  S
C620        C623   1.451       .  S
C621        N628   1.157       .  T
C622        N627   1.157       .  T
C623        N625   1.158       .  T
C624        N626   1.158       .  T
C629        C630   1.417       .  A
C629        C634   1.413       .  A
C630        C631   1.411       .  A
C630        C635   1.454       .  S
C631        C632   1.418       .  A
C631        C638   1.453       .  S
C632        C633   1.419       .  A
C633        C634   1.415       .  A
C633        C636   1.451       .  S
C634        C637   1.451       .  S
C635        N642   1.158       .  T
C636        N641   1.157       .  T
C637        N639   1.157       .  T
C638        N640   1.158       .  T
C643        C644   1.414       .  A
C643        C648   1.414       .  A
C644        C645   1.415       .  A
C644        C649   1.450       .  S
C645        C646   1.414       .  A
C645        C652   1.451       .  S
C646        C647   1.413       .  A
C647        C648   1.411       .  A
C647        C650   1.452       .  S
C648        C651   1.453       .  S
C649        N656   1.158   1_455  T
C650        N655   1.158       .  T
C651        N653   1.157       .  T
C652        N654   1.157       .  T
In657       O659   2.228       .  S
In657       O660   2.254       .  S
In657       O668   2.245       .  S
In657       O662   2.252       .  S
In657       O664   2.254       .  S
In657       O665   2.247       .  S
In657       O666   2.235       .  S
In657       O669   2.255       .  S
C658        O664   1.262       .  A
C658        O666   1.259       .  A
C658        C929   1.487       .  S
O659        C667   1.259       .  A
O660        C667   1.263       .  A
C661        O668   1.261       .  A
C661        O662   1.261       .  A
C661        C960   1.498       .  S
C663        O665   1.261       .  A
C663        O669   1.261       .  A
C663        C974   1.488       .  S
C667        C946   1.486       .  S
In670      O1000   2.239       .  S
In670      O1001   2.249       .  S
In670      O1009   2.253       .  S
In670       O675   2.238       .  S
In670       O677   2.254   1_565  S
In670       O678   2.262       .  S
In670       O679   2.240   1_565  S
In670       O682   2.227   1_565  S
C671        O677   1.261       .  A
C671        O679   1.260       .  A
C671        C943   1.490       .  S
O672       In998   2.239       .  S
O672        C680   1.259       .  A
O673       In998   2.249       .  S
O673        C680   1.262       .  A
C674        O681   1.261       .  A
C674       O1003   1.260       .  A
C674        C918   1.484       .  S
O675       C1002   1.260       .  A
C676        O678   1.261   1_545  A
C676        O682   1.260       .  A
C676        C901   1.489       .  S
C680        C932   1.492       .  S
O681       In998   2.253       .  S
In683       O685   2.238       .  S
In683       O686   2.265       .  S
In683       O694   2.214       .  S
In683       O688   2.255       .  S
In683       O690   2.253       .  S
In683       O691   2.268       .  S
In683       O692   2.190       .  S
In683       O695   2.213       .  S
C684        O690   1.269       .  A
C684        O692   1.261       .  A
C684        C845   1.484       .  S
O685        C693   1.262       .  A
O686        C693   1.267       .  A
C687        O694   1.262       .  A
C687        O688   1.266       .  A
C687        C890   1.481       .  S
C689        O691   1.270       .  A
C689        O695   1.260       .  A
C689        C859   1.495       .  S
C693        C876   1.493       .  S
In696       O707   2.232       .  S
In696       O701   2.247       .  S
In696       O703   2.251       .  S
In696       O704   2.269       .  S
In696       O708   2.218       .  S
C697        O705   1.261       .  A
C697        C915   1.481       .  S
O698        C706   1.262       .  A
O699        C706   1.268       .  A
C700        O707   1.264       .  A
C700        O701   1.265       .  A
C700        C887   1.492       .  S
C702        O704   1.268       .  A
C702        O708   1.260       .  A
C702        C971   1.490       .  S
C706        C873   1.494       .  S
In709       O720   2.220       .  S
In709       O714   2.258       .  S
In709       O716   2.258       .  S
In709       O717   2.258       .  S
In709       O721   2.213       .  S
C710        O718   1.262       .  A
C710        C904   1.492       .  S
O711        C719   1.263       .  A
O712        C719   1.268       .  A
C713        O720   1.263       .  A
C713        O714   1.268       .  A
C713        C817   1.495       .  S
C715        O717   1.270       .  A
C715        O721   1.262       .  A
C715        C957   1.492       .  S
C719        C834   1.488       .  S
In722       O724   2.225       .  S
In722       O725   2.258       .  S
In722       O733   2.218       .  S
In722       O727   2.257       .  S
In722       O729   2.256       .  S
In722       O730   2.267       .  S
In722       O731   2.205       .  S
In722       O734   2.200       .  S
C723        O729   1.268       .  A
C723        O731   1.261       .  A
C723        C789   1.491       .  S
O724        C732   1.263       .  A
O725        C732   1.267       .  A
C726        O733   1.263       .  A
C726        O727   1.267       .  A
C726        C820   1.487       .  S
C728        O730   1.270       .  A
C728        O734   1.261       .  A
C728        C803   1.492       .  S
C732        C831   1.498       .  S
In735       O737   2.238       .  S
In735       O738   2.250       .  S
In735       O746   2.238       .  S
In735       O740   2.254       .  S
In735       O742   2.258       .  S
In735       O743   2.262       .  S
In735       O744   2.244       .  S
In735       O747   2.236       .  S
C736        O742   1.260       .  A
C736        O744   1.259       .  A
C736        C761   1.489       .  S
O737        C745   1.260       .  A
O738        C745   1.261       .  A
C739        O746   1.262       .  A
C739        O740   1.261       .  A
C739        C862   1.498       .  S
C741        O743   1.261       .  A
C741        O747   1.261       .  A
C741        C806   1.497       .  S
C745        C775   1.487       .  S
In748       O750   2.234   1_565  S
In748       O751   2.249   1_565  S
In748       O759   2.228   1_565  S
In748       O753   2.258       .  S
In748      O1083   2.251       .  S
In748       O756   2.251   1_565  S
In748      O1085   2.241       .  S
In748      O1088   2.222       .  S
C749        O755   1.261       .  A
C749        O757   1.259       .  A
O750        C758   1.261       .  A
O751        C758   1.262       .  A
C752        O759   1.260       .  A
C752        O753   1.261   1_545  A
C752        C792   1.486       .  S
C754       O1084   1.261       .  A
C754        O760   1.260       .  A
C754        C848   1.486       .  S
O755      In1076   2.251       .  S
O756       C1082   1.261   1_545  A
O757      In1076   2.241       .  S
O760      In1076   2.222       .  S
C761        C762   1.413       .  A
C761        C766   1.414       .  A
C762        C763   1.411       .  A
C762        C767   1.453       .  S
C763        C764   1.417       .  A
C763        C770   1.452       .  S
C764        C765   1.417       .  A
C765        C766   1.414       .  A
C766        C769   1.451       .  S
C767        N774   1.157       .  T
C768        N773   1.157   1_455  T
C769        N771   1.158       .  T
C770        N772   1.158       .  T
C775        C776   1.414       .  A
C775        C780   1.413       .  A
C776        C777   1.411       .  A
C776        C781   1.453       .  S
C777        C778   1.417       .  A
C777        C784   1.452       .  S
C778        C779   1.417       .  A
C779        C780   1.412       .  A
C780        C783   1.451       .  S
C781        N788   1.157       .  T
C782        N787   1.157       .  T
C783        N785   1.158       .  T
C784        N786   1.158       .  T
C789        C790   1.416       .  A
C789        C794   1.419       .  A
C790        C791   1.415       .  A
C790        C795   1.451       .  S
C791        C792   1.414       .  A
C791       C1126   1.451   1_545  S
C792        C793   1.412       .  A
C793        C794   1.407       .  A
C793        C796   1.454       .  S
C794        C797   1.454       .  S
C795       N1130   1.157   1_545  T
C796        N801   1.157       .  T
C797        N799   1.158       .  T
C798       C1119   1.451       .  S
C798        N800   1.157       .  T
N802       C1123   1.157       .  T
C803        C804   1.413       .  A
C803        C808   1.417       .  A
C804        C805   1.418       .  A
C804        C809   1.452       .  S
C805        C806   1.420       .  A
C805        C812   1.450       .  S
C806        C807   1.416       .  A
C807        C808   1.408       .  A
C807        C810   1.454       .  S
C808        C811   1.453       .  S
C809        N816   1.157       .  T
C810        N815   1.157       .  T
C811        N813   1.158       .  T
C812        N814   1.158       .  T
C817        C818   1.417       .  A
C817        C822   1.418       .  A
C818        C819   1.409       .  A
C818        C823   1.451       .  S
C819        C820   1.413       .  A
C819        C826   1.454       .  S
C820        C821   1.412       .  A
C821        C822   1.416       .  A
C821        C824   1.450       .  S
C822        C825   1.451       .  S
C823        N830   1.157       .  T
C824        N829   1.158       .  T
C825        N827   1.157       .  T
C826        N828   1.157       .  T
C831        C832   1.420       .  A
C831        C836   1.417       .  A
C832        C833   1.418       .  A
C832        C837   1.450       .  S
C833        C834   1.411       .  A
C833        C840   1.450       .  S
C834        C835   1.412       .  A
C835        C836   1.410       .  A
C835        C838   1.453       .  S
C836        C839   1.452       .  S
C837        N844   1.158       .  T
C838        N843   1.157       .  T
C839        N841   1.157       .  T
C840        N842   1.157       .  T
C845        C846   1.416       .  A
C845        C850   1.413       .  A
C846        C847   1.403       .  A
C846        C851   1.454       .  S
C847        C848   1.414       .  A
C847        C854   1.454       .  S
C848        C849   1.417       .  A
C849        C850   1.414       .  A
C849       C1180   1.451       .  S
C850        C853   1.451       .  S
C851        N858   1.158       .  T
C852       C1177   1.451   1_545  S
C852        N857   1.158       .  T
C853        N855   1.157       .  T
C854        N856   1.157       .  T
C859        C860   1.418       .  A
C859        C864   1.414       .  A
C860        C861   1.410       .  A
C860        C865   1.453       .  S
C861        C862   1.417       .  A
C861        C868   1.453       .  S
C862        C863   1.419       .  A
C863        C864   1.417       .  A
C863        C866   1.451       .  S
C864        C867   1.451       .  S
C865        N872   1.158       .  T
C866        N871   1.158       .  T
C867        N869   1.157       .  T
C868        N870   1.157       .  T
C873        C874   1.416       .  A
C873        C878   1.415   1_554  A
C874        C875   1.417       .  A
C874        C879   1.450       .  S
C875        C876   1.412   1_554  A
C875        C882   1.450       .  S
C876        C877   1.416       .  A
C877        C878   1.413       .  A
C877        C880   1.452       .  S
C878        C881   1.453       .  S
C879        N886   1.158       .  T
C880        N885   1.158       .  T
C881        N883   1.157       .  T
C882        N884   1.157       .  T
C887        C888   1.415   1_554  A
C887        C892   1.419       .  A
C888        C889   1.410       .  A
C888        C893   1.452       .  S
C889        C890   1.412       .  A
C889        C896   1.453       .  S
C890        C891   1.408   1_556  A
C891        C892   1.414       .  A
C891        C894   1.450       .  S
C892        C895   1.450       .  S
C893        N900   1.157       .  T
C894        N899   1.157       .  T
C895        N897   1.157       .  T
C896        N898   1.158       .  T
C901        C902   1.415       .  A
C901        C906   1.414       .  A
C902        C903   1.416       .  A
C902       C1235   1.450   1_545  S
C903        C904   1.415       .  A
C903       C1238   1.451       .  S
C904        C905   1.417       .  A
C905        C906   1.407       .  A
C905        C908   1.453       .  S
C906        C909   1.454       .  S
C907       C1230   1.450       .  S
C907        N914   1.157       .  T
C908        N913   1.158       .  T
C909        N911   1.157       .  T
C910       C1231   1.451       .  S
C910        N912   1.157       .  T
C915        C916   1.413       .  A
C915        C920   1.412       .  A
C916        C917   1.413       .  A
C916        C921   1.451   1_655  S
C917        C918   1.414       .  A
C917       C1252   1.451       .  S
C918        C919   1.413       .  A
C919        C920   1.408       .  A
C919        C922   1.452       .  S
C920        C923   1.452       .  S
C922        N927   1.158       .  T
C923        N925   1.157       .  T
C924       C1245   1.451       .  S
C924        N926   1.157   1_655  T
C929        C930   1.414       .  A
C929        C934   1.413       .  A
C930        C931   1.411       .  A
C930        C935   1.452       .  S
C931        C932   1.416       .  A
C931        C938   1.452       .  S
C932        C933   1.418       .  A
C933        C934   1.412       .  A
C933        C936   1.452       .  S
C934        C937   1.452       .  S
C935        N942   1.158       .  T
C936        N941   1.158       .  T
C937        N939   1.157       .  T
C938        N940   1.157       .  T
C943        C944   1.415       .  A
C943        C948   1.416       .  A
C944        C945   1.410       .  A
C944        C949   1.453       .  S
C945        C946   1.414       .  A
C945        C952   1.453       .  S
C946        C947   1.413       .  A
C947        C948   1.413       .  A
C947        C950   1.452       .  S
C948        C951   1.451       .  S
C949        N956   1.157       .  T
C950        N955   1.157       .  T
C951        N953   1.158       .  T
C952        N954   1.158       .  T
C957        C958   1.417       .  A
C957        C962   1.413       .  A
C958        C959   1.411       .  A
C958        C963   1.454       .  S
C959        C960   1.418       .  A
C959        C966   1.453       .  S
C960        C961   1.419       .  A
C961        C962   1.415       .  A
C961        C964   1.451       .  S
C962        C965   1.451       .  S
C963        N970   1.158       .  T
C964        N969   1.157       .  T
C965        N967   1.157       .  T
C966        N968   1.158       .  T
C971        C972   1.414       .  A
C971        C976   1.414       .  A
C972        C973   1.415       .  A
C972        C977   1.450       .  S
C973        C974   1.414       .  A
C973        C980   1.451       .  S
C974        C975   1.413       .  A
C975        C976   1.411       .  A
C975        C978   1.452       .  S
C976        C979   1.453       .  S
C977        N984   1.158       .  T
C978        N983   1.158       .  T
C979        N981   1.157       .  T
C980        N982   1.157       .  T
In985       O987   2.228       .  S
In985       O988   2.254       .  S
In985       O996   2.245       .  S
In985       O990   2.252       .  S
In985       O992   2.254       .  S
In985       O993   2.247       .  S
In985       O994   2.235       .  S
In985       O997   2.255       .  S
C986        O992   1.262       .  A
C986        O994   1.259       .  A
C986       C1257   1.487       .  S
O987        C995   1.259       .  A
O988        C995   1.263       .  A
C989        O996   1.261       .  A
C989        O990   1.261       .  A
C989       C1288   1.498       .  S
C991        O993   1.261       .  A
C991        O997   1.261       .  A
C991       C1302   1.488       .  S
C995       C1274   1.486       .  S
In998      O1003   2.238       .  S
In998      O1005   2.254       .  S
In998      O1006   2.262       .  S
In998      O1007   2.240       .  S
In998      O1010   2.227       .  S
C999       O1005   1.261       .  A
C999       O1007   1.260       .  A
C999       C1271   1.490       .  S
O1000      C1008   1.259       .  A
O1001      C1008   1.262       .  A
C1002      O1009   1.261       .  A
C1002      C1246   1.484       .  S
C1004      O1006   1.261       .  A
C1004      O1010   1.260       .  A
C1004      C1229   1.489       .  S
C1008      C1260   1.492       .  S
In1011     O1013   2.238       .  S
In1011     O1014   2.265       .  S
In1011     O1022   2.214       .  S
In1011     O1016   2.255       .  S
In1011     O1018   2.253       .  S
In1011     O1019   2.268       .  S
In1011     O1020   2.190       .  S
In1011     O1023   2.213       .  S
C1012      O1018   1.269       .  A
C1012      O1020   1.261       .  A
C1012      C1173   1.484       .  S
O1013      C1021   1.262       .  A
O1014      C1021   1.267       .  A
C1015      O1022   1.262       .  A
C1015      O1016   1.266       .  A
C1015      C1218   1.481       .  S
C1017      O1019   1.270       .  A
C1017      O1023   1.261       .  A
C1017      C1187   1.495       .  S
C1021      C1204   1.493       .  S
In1024     O1035   2.232       .  S
In1024     O1029   2.247       .  S
In1024     O1031   2.251       .  S
In1024     O1032   2.269       .  S
In1024     O1036   2.218       .  S
C1025      O1033   1.261       .  A
C1025      C1243   1.481       .  S
O1026      C1034   1.262       .  A
O1027      C1034   1.268       .  A
C1028      O1035   1.264       .  A
C1028      O1029   1.265       .  A
C1028      C1215   1.492       .  S
C1030      O1032   1.268       .  A
C1030      O1036   1.260       .  A
C1030      C1299   1.490       .  S
C1034      C1201   1.494       .  S
In1037     O1048   2.220       .  S
In1037     O1042   2.258       .  S
In1037     O1044   2.258       .  S
In1037     O1045   2.258       .  S
In1037     O1049   2.213       .  S
C1038      O1046   1.262       .  A
C1038      C1232   1.492       .  S
O1039      C1047   1.263       .  A
O1040      C1047   1.268       .  A
C1041      O1048   1.263       .  A
C1041      O1042   1.268       .  A
C1041      C1145   1.495       .  S
C1043      O1045   1.270       .  A
C1043      O1049   1.262       .  A
C1043      C1285   1.492       .  S
C1047      C1162   1.488       .  S
In1050     O1052   2.225       .  S
In1050     O1053   2.258       .  S
In1050     O1061   2.218       .  S
In1050     O1055   2.257       .  S
In1050     O1057   2.256       .  S
In1050     O1058   2.267       .  S
In1050     O1059   2.205       .  S
In1050     O1062   2.200       .  S
C1051      O1057   1.268       .  A
C1051      O1059   1.261       .  A
C1051      C1117   1.491       .  S
O1052      C1060   1.263       .  A
O1053      C1060   1.267       .  A
C1054      O1061   1.263       .  A
C1054      O1055   1.267       .  A
C1054      C1148   1.487       .  S
C1056      O1058   1.270       .  A
C1056      O1062   1.261       .  A
C1056      C1131   1.492       .  S
C1060      C1159   1.498       .  S
In1063     O1065   2.238       .  S
In1063     O1066   2.250       .  S
In1063     O1074   2.238       .  S
In1063     O1068   2.254       .  S
In1063     O1070   2.258       .  S
In1063     O1071   2.262       .  S
In1063     O1072   2.244       .  S
In1063     O1075   2.236       .  S
C1064      O1070   1.260       .  A
C1064      O1072   1.259       .  A
C1064      C1089   1.489       .  S
O1065      C1073   1.260       .  A
O1066      C1073   1.261       .  A
C1067      O1074   1.262       .  A
C1067      O1068   1.261       .  A
C1067      C1190   1.498       .  S
C1069      O1071   1.261       .  A
C1069      O1075   1.261       .  A
C1069      C1134   1.497       .  S
C1073      C1103   1.487       .  S
In1076     O1078   2.234       .  S
In1076     O1079   2.249       .  S
In1076     O1087   2.228       .  S
In1076     O1081   2.258       .  S
In1076     O1084   2.251       .  S
C1077      O1083   1.261       .  A
C1077      O1085   1.259       .  A
O1078      C1086   1.261       .  A
O1079      C1086   1.262       .  A
C1080      O1087   1.260       .  A
C1080      O1081   1.261       .  A
C1080      C1120   1.486       .  S
C1082      O1088   1.260       .  A
C1082      C1176   1.486       .  S
C1089      C1090   1.413       .  A
C1089      C1094   1.414       .  A
C1090      C1091   1.411       .  A
C1090      C1095   1.453       .  S
C1091      C1092   1.417       .  A
C1091      C1098   1.452       .  S
C1092      C1093   1.417       .  A
C1093      C1094   1.414       .  A
C1094      C1097   1.451       .  S
C1095      N1102   1.157       .  T
C1096      N1101   1.157   1_455  T
C1097      N1099   1.158       .  T
C1098      N1100   1.158       .  T
C1103      C1104   1.414       .  A
C1103      C1108   1.413       .  A
C1104      C1105   1.411       .  A
C1104      C1109   1.453       .  S
C1105      C1106   1.417       .  A
C1105      C1112   1.452       .  S
C1106      C1107   1.417       .  A
C1107      C1108   1.412       .  A
C1108      C1111   1.451       .  S
C1109      N1116   1.157       .  T
C1110      N1115   1.157       .  T
C1111      N1113   1.158       .  T
C1112      N1114   1.158       .  T
C1117      C1118   1.416       .  A
C1117      C1122   1.419       .  A
C1118      C1119   1.415       .  A
C1118      C1123   1.451       .  S
C1119      C1120   1.414       .  A
C1120      C1121   1.412       .  A
C1121      C1122   1.407       .  A
C1121      C1124   1.454       .  S
C1122      C1125   1.454       .  S
C1124      N1129   1.157       .  T
C1125      N1127   1.158       .  T
C1126      N1128   1.157       .  T
C1131      C1132   1.413       .  A
C1131      C1136   1.417       .  A
C1132      C1133   1.418       .  A
C1132      C1137   1.452       .  S
C1133      C1134   1.420       .  A
C1133      C1140   1.450       .  S
C1134      C1135   1.416       .  A
C1135      C1136   1.408       .  A
C1135      C1138   1.454       .  S
C1136      C1139   1.453       .  S
C1137      N1144   1.157       .  T
C1138      N1143   1.157       .  T
C1139      N1141   1.158       .  T
C1140      N1142   1.158       .  T
C1145      C1146   1.417       .  A
C1145      C1150   1.418       .  A
C1146      C1147   1.409       .  A
C1146      C1151   1.451       .  S
C1147      C1148   1.413       .  A
C1147      C1154   1.454       .  S
C1148      C1149   1.412       .  A
C1149      C1150   1.416       .  A
C1149      C1152   1.450       .  S
C1150      C1153   1.451       .  S
C1151      N1158   1.157       .  T
C1152      N1157   1.158       .  T
C1153      N1155   1.157       .  T
C1154      N1156   1.157       .  T
C1159      C1160   1.420       .  A
C1159      C1164   1.417       .  A
C1160      C1161   1.418       .  A
C1160      C1165   1.450       .  S
C1161      C1162   1.411       .  A
C1161      C1168   1.450       .  S
C1162      C1163   1.412       .  A
C1163      C1164   1.410       .  A
C1163      C1166   1.453       .  S
C1164      C1167   1.452       .  S
C1165      N1172   1.158       .  T
C1166      N1171   1.157       .  T
C1167      N1169   1.157       .  T
C1168      N1170   1.157       .  T
C1173      C1174   1.416       .  A
C1173      C1178   1.413       .  A
C1174      C1175   1.403       .  A
C1174      C1179   1.454       .  S
C1175      C1176   1.414       .  A
C1175      C1182   1.454       .  S
C1176      C1177   1.417       .  A
C1177      C1178   1.414       .  A
C1178      C1181   1.451       .  S
C1179      N1186   1.158       .  T
C1180      N1185   1.158       .  T
C1181      N1183   1.157   1_565  T
C1182      N1184   1.157       .  T
C1187      C1188   1.418       .  A
C1187      C1192   1.414       .  A
C1188      C1189   1.410       .  A
C1188      C1193   1.453       .  S
C1189      C1190   1.417       .  A
C1189      C1196   1.453       .  S
C1190      C1191   1.419       .  A
C1191      C1192   1.417       .  A
C1191      C1194   1.451       .  S
C1192      C1195   1.451       .  S
C1193      N1200   1.158       .  T
C1194      N1199   1.158       .  T
C1195      N1197   1.157       .  T
C1196      N1198   1.157       .  T
C1201      C1202   1.416       .  A
C1201      C1206   1.415   1_554  A
C1202      C1203   1.417       .  A
C1202      C1207   1.450       .  S
C1203      C1204   1.412   1_554  A
C1203      C1210   1.450       .  S
C1204      C1205   1.416       .  A
C1205      C1206   1.413       .  A
C1205      C1208   1.452       .  S
C1206      C1209   1.453       .  S
C1207      N1214   1.158       .  T
C1208      N1213   1.158       .  T
C1209      N1211   1.157       .  T
C1210      N1212   1.157       .  T
C1215      C1216   1.415   1_554  A
C1215      C1220   1.419       .  A
C1216      C1217   1.410       .  A
C1216      C1221   1.452       .  S
C1217      C1218   1.412       .  A
C1217      C1224   1.453       .  S
C1218      C1219   1.408   1_556  A
C1219      C1220   1.414       .  A
C1219      C1222   1.450       .  S
C1220      C1223   1.450       .  S
C1221      N1228   1.157       .  T
C1222      N1227   1.157       .  T
C1223      N1225   1.157       .  T
C1224      N1226   1.157       .  T
C1229      C1230   1.415       .  A
C1229      C1234   1.414       .  A
C1230      C1231   1.416       .  A
C1231      C1232   1.415       .  A
C1232      C1233   1.417       .  A
C1233      C1234   1.407       .  A
C1233      C1236   1.453       .  S
C1234      C1237   1.454       .  S
C1235      N1242   1.157       .  T
C1236      N1241   1.158       .  T
C1237      N1239   1.157       .  T
C1238      N1240   1.157   1_545  T
C1243      C1244   1.413       .  A
C1243      C1248   1.412       .  A
C1244      C1245   1.413       .  A
C1244      C1249   1.451   1_655  S
C1245      C1246   1.414       .  A
C1246      C1247   1.413       .  A
C1247      C1248   1.408       .  A
C1247      C1250   1.452       .  S
C1248      C1251   1.452       .  S
C1250      N1255   1.158       .  T
C1251      N1253   1.157       .  T
C1252      N1254   1.157   1_655  T
C1257      C1258   1.414       .  A
C1257      C1262   1.413       .  A
C1258      C1259   1.411       .  A
C1258      C1263   1.452       .  S
C1259      C1260   1.416       .  A
C1259      C1266   1.452       .  S
C1260      C1261   1.418       .  A
C1261      C1262   1.412       .  A
C1261      C1264   1.452       .  S
C1262      C1265   1.452       .  S
C1263      N1270   1.158       .  T
C1264      N1269   1.158       .  T
C1265      N1267   1.157       .  T
C1266      N1268   1.157       .  T
C1271      C1272   1.415       .  A
C1271      C1276   1.416       .  A
C1272      C1273   1.410       .  A
C1272      C1277   1.453       .  S
C1273      C1274   1.414       .  A
C1273      C1280   1.453       .  S
C1274      C1275   1.413       .  A
C1275      C1276   1.413       .  A
C1275      C1278   1.452       .  S
C1276      C1279   1.451       .  S
C1277      N1284   1.157       .  T
C1278      N1283   1.157       .  T
C1279      N1281   1.158       .  T
C1280      N1282   1.158       .  T
C1285      C1286   1.417       .  A
C1285      C1290   1.413       .  A
C1286      C1287   1.411       .  A
C1286      C1291   1.454       .  S
C1287      C1288   1.418       .  A
C1287      C1294   1.453       .  S
C1288      C1289   1.419       .  A
C1289      C1290   1.415       .  A
C1289      C1292   1.451       .  S
C1290      C1293   1.451       .  S
C1291      N1298   1.158       .  T
C1292      N1297   1.157       .  T
C1293      N1295   1.157       .  T
C1294      N1296   1.158       .  T
C1299      C1300   1.414       .  A
C1299      C1304   1.414       .  A
C1300      C1301   1.415       .  A
C1300      C1305   1.450       .  S
C1301      C1302   1.414       .  A
C1301      C1308   1.451       .  S
C1302      C1303   1.413       .  A
C1303      C1304   1.411       .  A
C1303      C1306   1.452       .  S
C1304      C1307   1.453       .  S
C1305      N1312   1.158       .  T
C1306      N1311   1.158       .  T
C1307      N1309   1.157       .  T
C1308      N1310   1.157       .  T
