geometry optimzed in LAMMPS
_audit_creation_date              2020-12-01 
_audit_creation_method            'lammps2cif' 
_symmetry_space_group_name_H-M    'P1' 
_symmetry_Int_Tables_number       1 
_symmetry_cell_setting            triclinic 
loop_ 
_symmetry_equiv_pos_as_xyz 
  x,y,z 
_cell_length_a                    48.31151823 
_cell_length_b                    48.25377315272173 
_cell_length_c                    52.98403588009775 
_cell_angle_alpha                 90.12599078024462 
_cell_angle_beta                  89.89836367847775 
_cell_angle_gamma                 90.07812075388568 
loop_ 
_atom_site_label 
_atom_site_type_symbol 
_atom_site_fract_x 
_atom_site_fract_y 
_atom_site_fract_z 
_atom_site_charge 
C1          C  0.67499432  0.29521353  0.83637515     0.03500
C2          C  0.68227722  0.32329817  0.83822384    -0.12700
C3          C  0.70711651  0.33295118  0.82782512     0.01000
C4          C  0.72443624  0.31448117  0.81493128    -0.11200
C5          C  0.71821307  0.28593098  0.81336905     0.03500
C6          C  0.69308621  0.27660288  0.82421498    -0.10600
H7          H  0.66877883  0.33760187  0.84811096     0.09100
H8          H  0.74272984  0.32293998  0.80606201     0.06600
H9          H  0.68766793  0.25485385  0.82396419     0.06400
C10         C  0.25956255  0.34587628  0.83618604     0.03500
C11         C  0.28439230  0.33483574  0.84528669    -0.12700
C12         C  0.29033692  0.30658073  0.84209077     0.01000
C13         C  0.27085444  0.28932694  0.83011379    -0.11200
C14         C  0.24623621  0.30033017  0.81979248     0.03500
C15         C  0.24140557  0.32895046  0.82251849    -0.10600
H16         H  0.29856667  0.34796105  0.85573201     0.09100
H17         H  0.27518190  0.26738506  0.82900962     0.06600
H18         H  0.22332883  0.33852351  0.81431544     0.06400
C19         C  0.27051198  0.73629759  0.82439423     0.03500
C20         C  0.25223019  0.75395851  0.81152341    -0.12700
C21         C  0.26163586  0.77906256  0.80069484     0.01000
C22         C  0.28997098  0.78565407  0.80303708    -0.11200
C23         C  0.30792412  0.76907875  0.81720779     0.03500
C24         C  0.29826143  0.74410502  0.82732761    -0.10600
H25         H  0.23062020  0.74820164  0.81086302     0.09100
H26         H  0.29851370  0.80390921  0.79417638     0.06600
H27         H  0.31218650  0.73104275  0.83801684     0.06400
C28         C  0.72637770  0.72866408  0.80238769     0.03500
C29         C  0.74341085  0.74708564  0.78895285    -0.12700
C30         C  0.73688372  0.77558987  0.78733013     0.01000
C31         C  0.71202560  0.78483123  0.79858955    -0.11200
C32         C  0.69422390  0.76633241  0.81099661     0.03500
C33         C  0.70162903  0.73837727  0.81298388    -0.10600
H34         H  0.76184277  0.73889281  0.78008263     0.09100
H35         H  0.70670347  0.80658348  0.79876118     0.06600
H36         H  0.68841596  0.72428163  0.82342448     0.06400
N37         N  0.44641027  0.81989427  0.87874382    -0.26900
N38         N  0.46049209  0.80983942  0.85936925    -0.34800
C39         C  0.44247631  0.80036506  0.84196857     0.01400
C40         C  0.41581843  0.80482637  0.85084992     0.07400
C41         C  0.41922042  0.81738520  0.87412475    -0.05700
H42         H  0.44841957  0.79068644  0.82435180     0.08100
H43         H  0.40308976  0.82301054  0.88736392     0.09300
Cu44       Cu  0.50355316  0.80809983  0.85838565     0.44200
Cu45       Cu  0.46394113  0.83290720  0.91231887     0.42000
Cu46       Cu  0.53779968  0.82585241  0.91717600     0.43900
N47         N  0.54630564  0.80721613  0.86332593    -0.34300
N48         N  0.55867296  0.81335153  0.88486921    -0.28600
C49         C  0.58611249  0.80958529  0.88224925    -0.04700
C50         C  0.59139695  0.80069171  0.85782463     0.07500
C51         C  0.56563495  0.79961387  0.84635797     0.01300
H52         H  0.60103269  0.81323518  0.89707865     0.09000
H53         H  0.56117324  0.79303874  0.82725834     0.08100
N54         N  0.51235689  0.83502873  0.94761408    -0.35800
N55         N  0.48522929  0.83766312  0.94587527    -0.28000
C56         C  0.47454712  0.84093515  0.96914840    -0.03200
C57         C  0.49598929  0.84012207  0.98649564     0.05400
C58         C  0.51970500  0.83667057  0.97201051     0.03500
H59         H  0.45263535  0.84231516  0.97319470     0.08600
H60         H  0.54079082  0.83486362  0.97856985     0.07400
N61         N  0.21711088  0.60109631  0.89403275    -0.26900
N62         N  0.22563755  0.58746916  0.87378208    -0.34800
C63         C  0.23555125  0.60579007  0.85689019     0.01400
C64         C  0.23327072  0.63221907  0.86702590     0.07400
C65         C  0.22159326  0.62834276  0.89064441    -0.05700
H66         H  0.24459739  0.60012874  0.83892238     0.08100
H67         H  0.21681499  0.64416690  0.90447158     0.09300
Cu68       Cu  0.22500206  0.54444576  0.87054342     0.44200
Cu69       Cu  0.20114680  0.58240038  0.92613798     0.42000
Cu70       Cu  0.19864587  0.50838650  0.92580289     0.43900
N71         N  0.22303897  0.50147026  0.87357526    -0.34300
N72         N  0.21274587  0.48871659  0.89355998    -0.28600
C73         C  0.21507936  0.46124196  0.89036332    -0.04700
C74         C  0.22770356  0.45620068  0.86735597     0.07500
C75         C  0.23240309  0.48226521  0.85714475     0.01300
H76         H  0.20905654  0.44605768  0.90433463     0.09000
H77         H  0.24202592  0.48703352  0.83923176     0.08100
N78         N  0.19050214  0.53178337  0.95768557    -0.35800
N79         N  0.19117738  0.55913139  0.95771923    -0.28000
C80         C  0.18778508  0.56830562  0.98148219    -0.03200
C81         C  0.18521274  0.54559065  0.99733362     0.05400
C82         C  0.18674506  0.52277308  0.98145174     0.03500
H83         H  0.18807920  0.58994875  0.98675376     0.08600
H84         H  0.18680613  0.50118553  0.98692591     0.07400
N85         N  0.53793573  0.25097398  0.90822833    -0.26900
N86         N  0.52459703  0.25666098  0.88710288    -0.34800
C87         C  0.54331324  0.26322475  0.86913501     0.01400
C88         C  0.56967012  0.26168669  0.87955546     0.07400
C89         C  0.56526185  0.25385765  0.90436087    -0.05700
H90         H  0.53799389  0.26991076  0.85029371     0.08100
H91         H  0.58077794  0.25106589  0.91882554     0.09300
Cu92       Cu  0.48136560  0.25723857  0.88486364     0.44200
Cu93       Cu  0.51899003  0.24203533  0.94234983     0.42000
Cu94       Cu  0.44505573  0.24289708  0.94425417     0.43900
N95         N  0.43830141  0.25762953  0.88914566    -0.34300
N96         N  0.42535539  0.25197324  0.91055046    -0.28600
C97         C  0.39798550  0.25562544  0.90739077    -0.04700
C98         C  0.39325730  0.26410746  0.88281800     0.07500
C99         C  0.41937158  0.26516219  0.87184902     0.01300
H100        H  0.38291440  0.25388595  0.92241561     0.09000
H101        H  0.42435861  0.27174146  0.85287250     0.08100
N102        N  0.46924160  0.23833659  0.97622909    -0.35800
N103        N  0.49655576  0.23804810  0.97547531    -0.28000
C104        C  0.50637504  0.23746624  0.99918512    -0.03200
C105        C  0.48415377  0.23734757  0.01577285     0.05400
C106        C  0.46090397  0.23789328  0.00046021     0.03500
H107        H  0.52812606  0.23806315  0.00397512     0.08600
H108        H  0.43954774  0.23958764  0.00638767     0.07400
N109        N  0.75235702  0.47885819  0.87916013    -0.26900
N110        N  0.74385005  0.49010061  0.85780846    -0.34800
C111        C  0.73579963  0.46967773  0.84200926     0.01400
C112        C  0.73990705  0.44445131  0.85395021     0.07400
C113        C  0.75027641  0.45119078  0.87747694    -0.05700
H114        H  0.72770700  0.47292898  0.82322307     0.08100
H115        H  0.75507512  0.43709709  0.89269064     0.09300
Cu116      Cu  0.74461594  0.53273979  0.85152568     0.44200
Cu117      Cu  0.76477301  0.50093758  0.91065176     0.42000
Cu118      Cu  0.77175177  0.57385315  0.90470342     0.43900
N119        N  0.75156656  0.57539656  0.85043376    -0.34300
N120        N  0.76240230  0.58977773  0.86929400    -0.28600
C121        C  0.76391409  0.61658472  0.86262071    -0.04700
C122        C  0.75323403  0.61948042  0.83854707     0.07500
C123        C  0.74564942  0.59286256  0.83137920     0.01300
H124        H  0.77087223  0.63304181  0.87498653     0.09000
H125        H  0.73614919  0.58662718  0.81378939     0.08100
N126        N  0.77496716  0.55364483  0.93918084    -0.35800
N127        N  0.77256539  0.52649159  0.94118246    -0.28000
C128        C  0.77323100  0.51943807  0.96569095    -0.03200
C129        C  0.77588891  0.54334722  0.98001779     0.05400
C130        C  0.77712911  0.56467780  0.96246344     0.03500
H131        H  0.77042419  0.49854505  0.97261470     0.08600
H132        H  0.77882758  0.58664100  0.96621485     0.07400
N133        N  0.71230691  0.97886830  0.69065440    -0.26900
N134        N  0.71694716  0.99099987  0.71266312    -0.34800
C135        C  0.72491164  0.97157870  0.72936769     0.01400
C136        C  0.72500864  0.94599615  0.71736013     0.07400
C137        C  0.71694436  0.95152640  0.69283348    -0.05700
H138        H  0.73067205  0.97584431  0.74871335     0.08100
H139        H  0.71586356  0.93701032  0.67728767     0.09300
Cu140      Cu  0.71399250  0.03366999  0.71856038     0.44200
Cu141      Cu  0.70280424  0.99963593  0.65757245     0.42000
Cu142      Cu  0.70115673  0.07323237  0.66140894     0.43900
N143        N  0.71229206  0.07684890  0.71743223    -0.34300
N144        N  0.70766494  0.09081226  0.69642464    -0.28600
C145        C  0.70983337  0.11804015  0.70112598    -0.04700
C146        C  0.71640398  0.12167040  0.72630943     0.07500
C147        C  0.71748437  0.09506524  0.73617554     0.01300
H148        H  0.70730121  0.13392827  0.68696744     0.09000
H149        H  0.72300376  0.08933109  0.75524016     0.08100
N150        N  0.69713087  0.05208050  0.62775022    -0.35800
N151        N  0.69757408  0.02478630  0.62628384    -0.28000
C152        C  0.69517362  0.01719057  0.60196463    -0.03200
C153        C  0.69327666  0.04094658  0.58733003     0.05400
C154        C  0.69445360  0.06266528  0.60444727     0.03500
H155        H  0.69466885  0.99590178  0.59560891     0.08600
H156        H  0.69400133  0.08459587  0.60027568     0.07400
C157        C  0.74721388  0.22357191  0.77688260     0.03500
C158        C  0.72879075  0.24106002  0.78990282    -0.12700
C159        C  0.73802822  0.26632720  0.80057804     0.01000
C160        C  0.76632399  0.27344756  0.79774005    -0.11200
C161        C  0.78432816  0.25693317  0.78342548     0.03500
C162        C  0.77486994  0.23162543  0.77394896    -0.10600
H163        H  0.70715967  0.23533371  0.79057993     0.09100
H164        H  0.77457425  0.29226143  0.80586544     0.06600
H165        H  0.78901006  0.21840988  0.76355194     0.06400
N166        N  0.26783641  0.99054089  0.71495095    -0.26900
N167        N  0.25938912  0.00294557  0.73586331    -0.34800
C168        C  0.25312316  0.98336316  0.75309792     0.01400
C169        C  0.25799571  0.95745695  0.74246376     0.07400
C170        C  0.26742067  0.96298827  0.71833547    -0.05700
H171        H  0.24543055  0.98773038  0.77186355     0.08100
H172        H  0.27247119  0.94800958  0.70382172     0.09300
Cu173      Cu  0.25589979  0.04600617  0.73915301     0.44200
Cu174      Cu  0.27696328  0.01055981  0.68148984     0.42000
Cu175      Cu  0.26982416  0.08334864  0.68005508     0.43900
N176        N  0.25425467  0.08909802  0.73520677    -0.34300
N177        N  0.25936630  0.10205732  0.71372289    -0.28600
C178        C  0.25552508  0.12934691  0.71689458    -0.04700
C179        C  0.24760535  0.13415839  0.74157808     0.07500
C180        C  0.24705015  0.10810204  0.75270945     0.01300
H181        H  0.25799693  0.14453586  0.70207176     0.09000
H182        H  0.24080830  0.10311027  0.77177188     0.08100
N183        N  0.27853353  0.06053196  0.64813261    -0.35800
N184        N  0.28112609  0.03333416  0.64871117    -0.28000
C185        C  0.28468824  0.02389376  0.62507684    -0.03200
C186        C  0.28447052  0.04631046  0.60878283     0.05400
C187        C  0.28049833  0.06926111  0.62411768     0.03500
H188        H  0.28652792  0.00222263  0.62009147     0.08600
H189        H  0.27773287  0.09052567  0.61822890     0.07400
N190        N  0.03651856  0.32447172  0.73575639    -0.26900
N191        N  0.02308572  0.31278544  0.75474680    -0.34800
C192        C  0.04176744  0.30319106  0.77148715     0.01400
C193        C  0.06814595  0.30931052  0.76259106     0.07400
C194        C  0.06384577  0.32290906  0.74000186    -0.05700
H195        H  0.03648702  0.29226033  0.78863275     0.08100
H196        H  0.07953085  0.32988106  0.72686114     0.09300
Cu197      Cu  0.97998150  0.30909210  0.75601085     0.44200
Cu198      Cu  0.01854086  0.33868517  0.70277245     0.42000
Cu199      Cu  0.94612410  0.33012186  0.69746828     0.43900
N200        N  0.93726057  0.30725734  0.75006848    -0.34300
N201        N  0.92542580  0.31497729  0.72873000    -0.28600
C202        C  0.89815233  0.30993522  0.73006124    -0.04700
C203        C  0.89219385  0.29846845  0.75337089     0.07500
C204        C  0.91757389  0.29713515  0.76561586     0.01300
H205        H  0.88379471  0.31392828  0.71485850     0.09000
H206        H  0.92169815  0.28834192  0.78398009     0.08100
N207        N  0.97063198  0.34183090  0.66729811    -0.35800
N208        N  0.99766536  0.34507612  0.66918359    -0.28000
C209        C  0.00820773  0.35025353  0.64614075    -0.03200
C210        C  0.98666593  0.35017373  0.62882492     0.05400
C211        C  0.96313866  0.34493923  0.64306755     0.03500
H212        H  0.03000183  0.35323378  0.64234552     0.08600
H213        H  0.94225542  0.34217682  0.63615811     0.07400
C214        C  0.21446609  0.24042054  0.78231229     0.03500
C215        C  0.18697935  0.24926402  0.77990802    -0.12700
C216        C  0.17838868  0.27443112  0.79056255     0.01000
C217        C  0.19745070  0.29027598  0.80445708    -0.11200
C218        C  0.22553791  0.28230452  0.80639983     0.03500
C219        C  0.23366441  0.25717429  0.79502642    -0.10600
H220        H  0.17229054  0.23659744  0.76959856     0.09100
H221        H  0.18994724  0.30869533  0.81385180     0.06600
H222        H  0.25503122  0.25055968  0.79541333     0.06400
N223        N  0.05809043  0.76256999  0.70162894    -0.26900
N224        N  0.04526788  0.77136770  0.72223147    -0.34800
C225        C  0.06439114  0.77942116  0.73917410     0.01400
C226        C  0.09047031  0.77566338  0.72869704     0.07400
C227        C  0.08555922  0.76473580  0.70496948    -0.05700
H228        H  0.05950803  0.78768444  0.75763261     0.08100
H229        H  0.10079400  0.75992881  0.69063064     0.09300
Cu230      Cu  0.00239156  0.77389711  0.72635673     0.44200
Cu231      Cu  0.03886432  0.75099394  0.66835050     0.42000
Cu232      Cu  0.96559113  0.75276267  0.67052594     0.43900
N233        N  0.95931808  0.77367131  0.72393062    -0.34300
N234        N  0.94629300  0.76470206  0.70357599    -0.28600
C235        C  0.91890652  0.76694188  0.70709985    -0.04700
C236        C  0.91417102  0.77817775  0.73072351     0.07500
C237        C  0.94032925  0.78223342  0.74095473     0.01300
H238        H  0.90354531  0.76176215  0.69301622     0.09000
H239        H  0.94522880  0.79072733  0.75932079     0.08100
N240        N  0.98748411  0.74747828  0.63738299    -0.35800
N241        N  0.01475543  0.74654427  0.63636578    -0.28000
C242        C  0.02277050  0.74535244  0.61203470    -0.03200
C243        C  0.99926935  0.74570268  0.59702028     0.05400
C244        C  0.97733227  0.74706695  0.61383307     0.03500
H245        H  0.04409707  0.74581935  0.60582233     0.08600
H246        H  0.95555369  0.74844882  0.60929967     0.07400
C247        C  0.19822900  0.80818516  0.76627707     0.03500
C248        C  0.21663457  0.78959462  0.77781090    -0.12700
C249        C  0.24215048  0.79878932  0.78777291     0.01000
C250        C  0.24883624  0.82724282  0.78537034    -0.11200
C251        C  0.23121122  0.84562294  0.77274064     0.03500
C252        C  0.20576654  0.83608060  0.76369897    -0.10600
H253        H  0.21069116  0.76806059  0.77901937     0.09100
H254        H  0.26756497  0.83566893  0.79344721     0.06600
H255        H  0.19205359  0.85029109  0.75402753     0.06400
C256        C  0.76517755  0.84066892  0.75483363     0.03500
C257        C  0.74678136  0.82115290  0.76517496    -0.12700
C258        C  0.75638142  0.79575418  0.77498702     0.01000
C259        C  0.78492285  0.78996670  0.77316659    -0.11200
C260        C  0.80320556  0.80831873  0.76111170     0.03500
C261        C  0.79335053  0.83398991  0.75265412    -0.10600
H262        H  0.72497336  0.82612195  0.76555568     0.09100
H263        H  0.79336013  0.77116531  0.78107142     0.06600
H264        H  0.80737317  0.84830291  0.74341519     0.06400
C265        C  0.71690217  0.36176654  0.27881775     0.03500
C266        C  0.73698745  0.34503488  0.29049856    -0.12700
C267        C  0.72965521  0.31951754  0.30179727     0.01000
C268        C  0.70151152  0.31149497  0.30133390    -0.11200
C269        C  0.68154569  0.32747583  0.28884917     0.03500
C270        C  0.68929095  0.35282580  0.27815258    -0.10600
H271        H  0.75839711  0.35159191  0.28978667     0.09100
H272        H  0.69475294  0.29264657  0.31046229     0.06600
H273        H  0.67392015  0.36524335  0.26851351     0.06400
C274        C  0.24799319  0.34612514  0.27943444     0.03500
C275        C  0.27533959  0.33794183  0.27544455    -0.12700
C276        C  0.28464455  0.31207027  0.28362869     0.01000
C277        C  0.26666260  0.29503174  0.29763496    -0.11200
C278        C  0.23861577  0.30267289  0.30184391     0.03500
C279        C  0.22957602  0.32824456  0.29180392    -0.10600
H280        H  0.28936315  0.35165483  0.26545539     0.09100
H281        H  0.27495417  0.27589527  0.30487321     0.06600
H282        H  0.20831872  0.33482062  0.29355079     0.06400
C283        C  0.27949583  0.77726512  0.26405965     0.03500
C284        C  0.27155146  0.74951617  0.26137368    -0.12700
C285        C  0.24653700  0.74008106  0.27153773     0.01000
C286        C  0.22980900  0.75846066  0.28525943    -0.11200
C287        C  0.23675620  0.78682076  0.28745461     0.03500
C288        C  0.26180130  0.79592513  0.27643991    -0.10600
H289        H  0.28474554  0.73528760  0.25104490     0.09100
H290        H  0.21148540  0.75019112  0.29422793     0.06600
H291        H  0.26757711  0.81756943  0.27681935     0.06400
C292        C  0.66991933  0.78187188  0.27161430     0.03500
C293        C  0.68971283  0.79889963  0.28327398    -0.12700
C294        C  0.71786310  0.79098570  0.28443911     0.01000
C295        C  0.72533809  0.76511950  0.27379792    -0.11200
C296        C  0.70539389  0.74746382  0.26307967     0.03500
C297        C  0.67773779  0.75594491  0.26222669    -0.10600
H298        H  0.68266977  0.81822808  0.29132107     0.09100
H299        H  0.74672674  0.75863851  0.27307615     0.06600
H300        H  0.66233311  0.74267283  0.25353471     0.06400
N301        N  0.75422015  0.49561261  0.19892650    -0.26900
N302        N  0.74975679  0.50984389  0.21990052    -0.34800
C303        C  0.74432354  0.49195816  0.23879089     0.01400
C304        C  0.74526333  0.46516760  0.22921928     0.07400
C305        C  0.75157635  0.46842087  0.20387537    -0.05700
H306        H  0.73875272  0.49811825  0.25776901     0.08100
H307        H  0.75354049  0.45220364  0.18985865     0.09300
Cu308      Cu  0.74838562  0.55303534  0.22110833     0.44200
Cu309      Cu  0.76131242  0.51338694  0.16378720     0.42000
Cu310      Cu  0.75493819  0.58726692  0.16003060     0.43900
N311        N  0.74450464  0.59568146  0.21584368    -0.34300
N312        N  0.74660647  0.60783599  0.19357765    -0.28600
C313        C  0.74163031  0.63506979  0.19626564    -0.04700
C314        C  0.73622461  0.64057156  0.22146237     0.07500
C315        C  0.73821773  0.61501123  0.23331584     0.01300
H316        H  0.74178410  0.64976809  0.18087837     0.09000
H317        H  0.73437421  0.61049949  0.25298962     0.08100
N318        N  0.76200056  0.56237907  0.12874956    -0.35800
N319        N  0.76441288  0.53518197  0.13009643    -0.28000
C320        C  0.76802071  0.52493722  0.10668506    -0.03200
C321        C  0.76806696  0.54679308  0.08960515     0.05400
C322        C  0.76407824  0.57020203  0.10447898     0.03500
H323        H  0.76958928  0.50306323  0.10258758     0.08600
H324        H  0.76274497  0.59146764  0.09820396     0.07400
N325        N  0.53180344  0.81959215  0.20480220    -0.26900
N326        N  0.51727055  0.81161681  0.22467032    -0.34800
C327        C  0.53482416  0.80558726  0.24362723     0.01400
C328        C  0.56168980  0.81016625  0.23525443     0.07400
C329        C  0.55880832  0.81904243  0.21057736    -0.05700
H330        H  0.52839579  0.79856219  0.26209814     0.08100
H331        H  0.57522731  0.82396344  0.19741274     0.09300
Cu332      Cu  0.47426908  0.80949877  0.22473696     0.44200
Cu333      Cu  0.51533505  0.82959114  0.16994593     0.42000
Cu334      Cu  0.44219687  0.82861770  0.16461829     0.43900
N335        N  0.43177668  0.81077840  0.21857510    -0.34300
N336        N  0.42046291  0.81780945  0.19680052    -0.28600
C337        C  0.39282879  0.81576501  0.19868836    -0.04700
C338        C  0.38625580  0.80691453  0.22277561     0.07500
C339        C  0.41147915  0.80418370  0.23495023     0.01300
H340        H  0.37866191  0.82037241  0.18349856     0.09000
H341        H  0.41488271  0.79712366  0.25406053     0.08100
N342        N  0.46788254  0.83590677  0.13408611    -0.35800
N343        N  0.49510598  0.83606504  0.13606834    -0.28000
C344        C  0.50625859  0.83896201  0.11297219    -0.03200
C345        C  0.48498413  0.84083026  0.09552906     0.05400
C346        C  0.46089907  0.83881111  0.10967268     0.03500
H347        H  0.52825590  0.83892452  0.10911686     0.08600
H348        H  0.43989545  0.83793574  0.10268638     0.07400
N349        N  0.20841896  0.48540933  0.21115809    -0.26900
N350        N  0.21606608  0.49879176  0.23179604    -0.34800
C351        C  0.22293225  0.48019465  0.24958962     0.01400
C352        C  0.21958000  0.45376853  0.23963051     0.07400
C353        C  0.21022638  0.45802353  0.21525170    -0.05700
H354        H  0.22966121  0.48571231  0.26838260     0.08100
H355        H  0.20575241  0.44237734  0.20118274     0.09300
Cu356      Cu  0.21719770  0.54169554  0.23481934     0.44200
Cu357      Cu  0.19688647  0.50433810  0.17777769     0.42000
Cu358      Cu  0.19266175  0.57817972  0.17929377     0.43900
N359        N  0.21431619  0.58454196  0.23246549    -0.34300
N360        N  0.20423717  0.59753235  0.21255957    -0.28600
C361        C  0.20506594  0.62496723  0.21672895    -0.04700
C362        C  0.21654471  0.62962508  0.24025020     0.07500
C363        C  0.22216519  0.60348702  0.24974098     0.01300
H364        H  0.19890897  0.64045481  0.20311967     0.09000
H365        H  0.23136562  0.59853382  0.26776684     0.08100
N366        N  0.18717276  0.55517261  0.14665003    -0.35800
N367        N  0.18853504  0.52785348  0.14608183    -0.28000
C368        C  0.18612754  0.51913770  0.12205324    -0.03200
C369        C  0.18321260  0.54215228  0.10668300     0.05400
C370        C  0.18405244  0.56463457  0.12299163     0.03500
H371        H  0.18800656  0.49775347  0.11616139     0.08600
H372        H  0.18329306  0.58634138  0.11797584     0.07400
N373        N  0.54173555  0.27724293  0.23050742    -0.26900
N374        N  0.52789251  0.28510892  0.25088801    -0.34800
C375        C  0.54620160  0.29408732  0.26831257     0.01400
C376        C  0.57270525  0.29143404  0.25842784     0.07400
C377        C  0.56894546  0.28062476  0.23452085    -0.05700
H378        H  0.54061282  0.30181802  0.28680391     0.08100
H379        H  0.58484587  0.27634872  0.22064489     0.09300
Cu380      Cu  0.48465895  0.28324513  0.25401737     0.44200
Cu381      Cu  0.52441176  0.26423936  0.19678365     0.42000
Cu382      Cu  0.45196327  0.25710859  0.19701676     0.43900
N383        N  0.44178250  0.27819094  0.25003194    -0.34300
N384        N  0.43054516  0.26818736  0.22917477    -0.28600
C385        C  0.40290268  0.26909860  0.23114727    -0.04700
C386        C  0.39598048  0.28020572  0.25437192     0.07500
C387        C  0.42123062  0.28566546  0.26596974     0.01300
H388        H  0.38885034  0.26305908  0.21623481     0.09000
H389        H  0.42444996  0.29576366  0.28397079     0.08100
N390        N  0.47515874  0.25275292  0.16456083    -0.35800
N391        N  0.50230446  0.25551584  0.16430895    -0.28000
C392        C  0.51142534  0.25327328  0.14039399    -0.03200
C393        C  0.48875796  0.24903968  0.12472773     0.05400
C394        C  0.46614381  0.24871852  0.14087903     0.03500
H395        H  0.53296879  0.25464037  0.13502622     0.08600
H396        H  0.44457741  0.24658638  0.13577268     0.07400
N397        N  0.03315442  0.76622973  0.37995564    -0.26900
N398        N  0.01940712  0.77761993  0.36108961    -0.34800
C399        C  0.03783246  0.78777813  0.34430749     0.01400
C400        C  0.06432433  0.78207171  0.35298805     0.07400
C401        C  0.06039972  0.76855429  0.37567153    -0.05700
H402        H  0.03237241  0.79864455  0.32719030     0.08100
H403        H  0.07615975  0.76208892  0.38886397     0.09300
Cu404      Cu  0.97623767  0.77896406  0.35995165     0.44200
Cu405      Cu  0.01568609  0.75152025  0.41283640     0.42000
Cu406      Cu  0.94322522  0.75876279  0.41948230     0.43900
N407        N  0.93349934  0.77601350  0.36524150    -0.34300
N408        N  0.92184399  0.76866172  0.38683053    -0.28600
C409        C  0.89419790  0.76995639  0.38447288    -0.04700
C410        C  0.88792598  0.77867663  0.36027020     0.07500
C411        C  0.91340290  0.78206273  0.34853870     0.01300
H412        H  0.87981743  0.76522981  0.39952025     0.09000
H413        H  0.91708844  0.78954290  0.32959265     0.08100
N414        N  0.96910974  0.75116201  0.44983444    -0.35800
N415        N  0.99605921  0.74785248  0.44723647    -0.28000
C416        C  0.00765615  0.74547096  0.47017295    -0.03200
C417        C  0.98698860  0.74766225  0.48823796     0.05400
C418        C  0.96273799  0.75096502  0.47452943     0.03500
H419        H  0.02968577  0.74379849  0.47345031     0.08600
H420        H  0.94198139  0.75350229  0.48179197     0.07400
C421        C  0.21059416  0.84980846  0.32459172     0.03500
C422        C  0.22814805  0.83154633  0.31154615    -0.12700
C423        C  0.21792623  0.80665912  0.30101975     0.01000
C424        C  0.18954838  0.80055346  0.30415448    -0.11200
C425        C  0.17218214  0.81781806  0.31843124     0.03500
C426        C  0.18276336  0.84257065  0.32834049    -0.10600
H427        H  0.24992189  0.83659526  0.31052928     0.09100
H428        H  0.18052978  0.78222484  0.29575805     0.06600
H429        H  0.16952448  0.85592734  0.33952586     0.06400
N430        N  0.25833722  0.09801743  0.39475548    -0.26900
N431        N  0.25033527  0.08554125  0.37375719    -0.34800
C432        C  0.24167290  0.10503030  0.35733310     0.01400
C433        C  0.24436479  0.13091454  0.36869714     0.07400
C434        C  0.25513290  0.12543751  0.39231793    -0.05700
H435        H  0.23280466  0.10050430  0.33906016     0.08100
H436        H  0.25956263  0.14022642  0.40714408     0.09300
Cu437      Cu  0.25006436  0.04240647  0.36974048     0.44200
Cu438      Cu  0.27009123  0.07852976  0.42759236     0.42000
Cu439      Cu  0.27118377  0.00586052  0.42751711     0.43900
N440        N  0.25221377  0.99928681  0.37329931    -0.34300
N441        N  0.26000547  0.98659540  0.39422743    -0.28600
C442        C  0.25755104  0.95910564  0.39112848    -0.04700
C443        C  0.24758674  0.95396342  0.36715108     0.07500
C444        C  0.24470718  0.97992066  0.35623778     0.01300
H445        H  0.26217263  0.94405225  0.40560336     0.09000
H446        H  0.23650851  0.98443652  0.33771137     0.08100
N447        N  0.27747126  0.02874781  0.45994709    -0.35800
N448        N  0.27696787  0.05605646  0.45998947    -0.28000
C449        C  0.27957430  0.06526929  0.48381451    -0.03200
C450        C  0.28165830  0.04254533  0.49964842     0.05400
C451        C  0.28045928  0.01969935  0.48373729     0.03500
H452        H  0.27880921  0.08687335  0.48926747     0.08600
H453        H  0.28130177  0.99806428  0.48892095     0.07400
N454        N  0.04157621  0.33059292  0.41305555    -0.26900
N455        N  0.02807307  0.32557003  0.39185165    -0.34800
C456        C  0.04633971  0.31710731  0.37419055     0.01400
C457        C  0.07265134  0.31681668  0.38479266     0.07400
C458        C  0.06862405  0.32547401  0.40948468    -0.05700
H459        H  0.04060293  0.31069738  0.35535232     0.08100
H460        H  0.08418786  0.32764926  0.42400707     0.09300
Cu461      Cu  0.98515056  0.32909884  0.38851876     0.44200
Cu462      Cu  0.02301639  0.34219719  0.44673884     0.42000
Cu463      Cu  0.94881451  0.34452977  0.44717297     0.43900
N464        N  0.94215197  0.33216976  0.39143867    -0.34300
N465        N  0.92912419  0.33758419  0.41286345    -0.28600
C466        C  0.90166510  0.33597601  0.40900396    -0.04700
C467        C  0.89699212  0.32908244  0.38395305     0.07500
C468        C  0.92319956  0.32711162  0.37335351     0.01300
H469        H  0.88629835  0.33898481  0.42361264     0.09000
H470        H  0.92815508  0.32095966  0.35422703     0.08100
N471        N  0.97272946  0.34919721  0.47948736    -0.35800
N472        N  0.00004790  0.34877809  0.47924544    -0.28000
C473        C  0.00940135  0.35116438  0.50304509    -0.03200
C474        C  0.98687178  0.35320257  0.51924603     0.05400
C475        C  0.96394318  0.35173925  0.50347761     0.03500
H476        H  0.03106662  0.35086671  0.50813526     0.08600
H477        H  0.94238486  0.35129561  0.50892763     0.07400
C478        C  0.20820231  0.23978926  0.33660204     0.03500
C479        C  0.22515524  0.25621159  0.32112793    -0.12700
C480        C  0.21900396  0.28444394  0.31669945     0.01000
C481        C  0.19429412  0.29522422  0.32743434    -0.11200
C482        C  0.17644053  0.27844415  0.34176568     0.03500
C483        C  0.18357311  0.25083355  0.34620469    -0.10600
H484        H  0.24341944  0.24669746  0.31323070     0.09100
H485        H  0.18893968  0.31683884  0.32566815     0.06600
H486        H  0.16998627  0.23790303  0.35746702     0.06400
N487        N  0.71283863  0.10957772  0.37615998    -0.26900
N488        N  0.72113019  0.09758446  0.35495786    -0.34800
C489        C  0.73136030  0.11739564  0.33949546     0.01400
C490        C  0.72957999  0.14285172  0.35177070     0.07400
C491        C  0.71764633  0.13689002  0.37483683    -0.05700
H492        H  0.74070638  0.11335807  0.32129360     0.08100
H493        H  0.71348847  0.15130786  0.39004050     0.09300
Cu494      Cu  0.72036877  0.05439890  0.34942703     0.44200
Cu495      Cu  0.69811141  0.08980895  0.40809256     0.42000
Cu496      Cu  0.69430607  0.01772274  0.40501532     0.43900
N497        N  0.71774344  0.01099710  0.35221998    -0.34300
N498        N  0.70784895  0.99843777  0.37248908    -0.28600
C499        C  0.71023767  0.97094113  0.36968118    -0.04700
C500        C  0.72230361  0.96541300  0.34653590     0.07500
C501        C  0.72668634  0.99140912  0.33585277     0.01300
H502        H  0.70422245  0.95606736  0.38392459     0.09000
H503        H  0.73682292  0.99584228  0.31809934     0.08100
N504        N  0.68734611  0.03903427  0.43818252    -0.35800
N505        N  0.68877156  0.06627451  0.43953911    -0.28000
C506        C  0.68694354  0.07409881  0.46388469    -0.03200
C507        C  0.68436750  0.05045985  0.47859010     0.05400
C508        C  0.68464382  0.02864828  0.46153284     0.03500
H509        H  0.68953974  0.09518363  0.47042551     0.08600
H510        H  0.68443045  0.00674459  0.46583458     0.07400
C511        C  0.79549512  0.29425125  0.33497828     0.03500
C512        C  0.79024370  0.26573711  0.33634823    -0.12700
C513        C  0.76551716  0.25443920  0.32714322     0.01000
C514        C  0.74665507  0.27189206  0.31480980    -0.11200
C515        C  0.75116352  0.30085455  0.31328649     0.03500
C516        C  0.77591334  0.31174150  0.32358398    -0.10600
H517        H  0.80531310  0.25233581  0.34524403     0.09100
H518        H  0.72813210  0.26268323  0.30702464     0.06600
H519        H  0.77964608  0.33385184  0.32377489     0.06400
C520        C  0.75310912  0.85473114  0.31378193     0.03500
C521        C  0.73438340  0.83817294  0.30019593    -0.12700
C522        C  0.73921661  0.80945025  0.29665327     0.01000
C523        C  0.76423954  0.79827563  0.30602847    -0.11200
C524        C  0.78375023  0.81508487  0.31830098     0.03500
C525        C  0.77797050  0.84317235  0.32216371    -0.10600
H526        H  0.71579122  0.84788282  0.29321239     0.09100
H527        H  0.76839177  0.77630981  0.30497025     0.06600
H528        H  0.79267823  0.85601442  0.33229064     0.06400
C529        C  0.75824779  0.22499527  0.33262557    -0.05100
C530        C  0.74735822  0.20761117  0.31369392    -0.32500
C531        C  0.73884432  0.18037585  0.31926343     0.36700
C532        C  0.74068285  0.17033282  0.34416320    -0.05500
C533        C  0.75196290  0.18758952  0.36287156    -0.32400
C534        C  0.76073458  0.21450696  0.35735166     0.36600
H535        H  0.74517399  0.21526150  0.29459549     0.17000
O536        O  0.72717407  0.16446100  0.30063196    -0.59900
H537        H  0.75371333  0.18033306  0.38213508     0.17000
O538        O  0.76989364  0.23106928  0.37671774    -0.60000
H539        H  0.78851548  0.22392919  0.38111008     0.44000
H540        H  0.74301741  0.15664786  0.29107055     0.43900
C541        C  0.73087386  0.93755268  0.33726870    -0.05100
C542        C  0.73749261  0.91700927  0.35502803    -0.32500
C543        C  0.74490849  0.89027859  0.34745694     0.36700
C544        C  0.74564537  0.88332397  0.32164949    -0.05500
C545        C  0.73898819  0.90366720  0.30373503    -0.32400
C546        C  0.73178887  0.93067303  0.31136055     0.36600
H547        H  0.73712196  0.92161237  0.37503297     0.17000
O548        O  0.75023239  0.87065679  0.36552298    -0.59900
H549        H  0.73944115  0.89860696  0.28380782     0.17000
O550        O  0.72519511  0.94990804  0.29335983    -0.60000
H551        H  0.70485420  0.94839837  0.29123209     0.44000
H552        H  0.76911312  0.87490091  0.37178488     0.43900
C553        C  0.09928185  0.30764376  0.37328925    -0.05100
C554        C  0.12002177  0.29663171  0.38892367    -0.32500
C555        C  0.14532916  0.28772252  0.37894794     0.36700
C556        C  0.15050815  0.28969412  0.35285009    -0.05500
C557        C  0.13016379  0.30121851  0.33719606    -0.32400
C558        C  0.10460519  0.30988754  0.34714654     0.36600
H559        H  0.11654247  0.29447033  0.40901438     0.17000
O560        O  0.16487566  0.27698049  0.39491240    -0.59900
H561        H  0.13386820  0.30293599  0.31708428     0.17000
O562        O  0.08541894  0.32134313  0.33125606    -0.60000
H563        H  0.07730238  0.30548794  0.32188184     0.44000
H564        H  0.17731941  0.29271846  0.39899820     0.43900
C565        C  0.82057090  0.30549377  0.34755972    -0.05100
C566        C  0.82512857  0.29921895  0.37305646    -0.32500
C567        C  0.84948356  0.30741174  0.38524288     0.36700
C568        C  0.87016952  0.32191455  0.37184578    -0.05500
C569        C  0.86550684  0.32847789  0.34633606    -0.32400
C570        C  0.84086117  0.32052446  0.33423183     0.36600
H571        H  0.80983835  0.28743552  0.38351719     0.17000
O572        O  0.85363519  0.29937559  0.40975738    -0.59900
H573        H  0.88111166  0.33962260  0.33570383     0.17000
O574        O  0.83719152  0.32679068  0.30922791    -0.60000
H575        H  0.84423914  0.31044417  0.29984543     0.44000
H576        H  0.84167979  0.31170452  0.42005841     0.43900
C577        C  0.23487325  0.15841431  0.35963692    -0.05100
C578        C  0.22639834  0.17823541  0.37751483    -0.32500
C579        C  0.21784383  0.20458491  0.37015942     0.36700
C580        C  0.21716469  0.21168818  0.34439954    -0.05500
C581        C  0.22582411  0.19209052  0.32640080    -0.32400
C582        C  0.23450328  0.16554599  0.33382964     0.36600
H583        H  0.22625801  0.17337695  0.39744938     0.17000
O584        O  0.21061075  0.22343464  0.38844116    -0.59900
H585        H  0.22576799  0.19733944  0.30653062     0.17000
O586        O  0.24376510  0.14728611  0.31585247    -0.60000
H587        H  0.22683665  0.14012414  0.30750689     0.44000
H588        H  0.22749218  0.23470743  0.39134992     0.43900
C589        C  0.22151407  0.87595232  0.33545543    -0.05100
C590        C  0.21712420  0.88170986  0.36109317    -0.32500
C591        C  0.22604627  0.90671677  0.37172740     0.36700
C592        C  0.23917485  0.92681716  0.35653627    -0.05500
C593        C  0.24368006  0.92103711  0.33087315    -0.32400
C594        C  0.23532071  0.89565658  0.32037782     0.36600
H595        H  0.20655614  0.86676768  0.37294156     0.17000
O596        O  0.22024536  0.91197462  0.39663316    -0.59900
H597        H  0.25376749  0.93621213  0.31893284     0.17000
O598        O  0.23943934  0.89087941  0.29511727    -0.60000
H599        H  0.25919481  0.88557642  0.29353427     0.44000
H600        H  0.23345456  0.90044791  0.40632877     0.43900
C601        C  0.09131139  0.79032754  0.34199192    -0.05100
C602        C  0.09433354  0.81618688  0.33014706    -0.32500
C603        C  0.12046380  0.82541104  0.32202334     0.36700
C604        C  0.14387954  0.80839248  0.32518409    -0.05500
C605        C  0.14055230  0.78207782  0.33597488    -0.32400
C606        C  0.11466674  0.77307810  0.34449583     0.36600
H607        H  0.07659619  0.82966499  0.32791931     0.17000
O608        O  0.12284379  0.85073087  0.31048769    -0.59900
H609        H  0.15829878  0.76863990  0.33843257     0.17000
O610        O  0.11225435  0.74701057  0.35458379    -0.60000
H611        H  0.12169621  0.74792969  0.37117799     0.44000
H612        H  0.12100629  0.86460107  0.32422874     0.43900
C613        C  0.86029052  0.78580573  0.34996467    -0.05100
C614        C  0.85465524  0.78165350  0.32419391    -0.32500
C615        C  0.82926923  0.78989527  0.31376963     0.36700
C616        C  0.80941494  0.80319977  0.32903002    -0.05500
C617        C  0.81480932  0.80682128  0.35480811    -0.32400
C618        C  0.83978788  0.79802090  0.36536925     0.36600
H619        H  0.87005736  0.77219032  0.31205674     0.17000
O620        O  0.82472371  0.78635228  0.28842115    -0.59900
H621        H  0.79969598  0.81700645  0.36677925     0.17000
O622        O  0.84465047  0.80332261  0.39041008    -0.60000
H623        H  0.83354519  0.78938671  0.39973585     0.44000
H624        H  0.81827669  0.76693248  0.28659085     0.43900
C625        C  0.64165771  0.79213095  0.26646303    -0.05100
C626        C  0.61846923  0.77703114  0.27463649    -0.32500
C627        C  0.59188102  0.78360237  0.26589082     0.36700
C628        C  0.58833054  0.80536724  0.24842726    -0.05500
C629        C  0.61145075  0.82133367  0.24147074    -0.32400
C630        C  0.63786549  0.81495625  0.25040008     0.36600
H631        H  0.62115952  0.75938622  0.28700267     0.17000
O632        O  0.56991008  0.76761499  0.27344169    -0.59900
H633        H  0.60924054  0.83834931  0.22833209     0.17000
O634        O  0.66017002  0.82963345  0.24152118    -0.60000
H635        H  0.66153680  0.84611337  0.25267181     0.44000
H636        H  0.56889546  0.75228804  0.26097313     0.43900
C637        C  0.71348904  0.72025322  0.25229215    -0.05100
C638        C  0.72802654  0.70117165  0.26717182    -0.32500
C639        C  0.73523606  0.67501046  0.25761708     0.36700
C640        C  0.72839768  0.66776852  0.23257140    -0.05500
C641        C  0.71416629  0.68710560  0.21763509    -0.32400
C642        C  0.70652446  0.71300789  0.22733845     0.36600
H643        H  0.73358309  0.70648198  0.28639111     0.17000
O644        O  0.75007373  0.65725068  0.27254100    -0.59900
H645        H  0.70863566  0.68208983  0.19835970     0.17000
O646        O  0.69328077  0.73158434  0.21195468    -0.60000
H647        H  0.67405977  0.72456331  0.21033464     0.44000
H648        H  0.73652728  0.64971440  0.28483789     0.43900
C649        C  0.22306633  0.65702622  0.25132477    -0.05100
C650        C  0.20490121  0.67920276  0.24707835    -0.32500
C651        C  0.21172288  0.70610190  0.25475374     0.36700
C652        C  0.23733297  0.71130044  0.26651603    -0.05500
C653        C  0.25519323  0.68903172  0.27143067    -0.32400
C654        C  0.24811263  0.66198866  0.26417915     0.36600
H655        H  0.18554857  0.67577685  0.23724011     0.17000
O656        O  0.19418211  0.72748052  0.24892393    -0.59900
H657        H  0.27501300  0.69274247  0.28037445     0.17000
O658        O  0.26678462  0.64103056  0.26793661    -0.60000
H659        H  0.26473553  0.63586328  0.28595110     0.44000
H660        H  0.17937394  0.72678897  0.26189659     0.43900
C661        C  0.30620278  0.78663487  0.25335498    -0.05100
C662        C  0.31209270  0.78142606  0.22787120    -0.32500
C663        C  0.33782456  0.78843651  0.21755677     0.36700
C664        C  0.35843193  0.80043888  0.23293974    -0.05500
C665        C  0.35249554  0.80569539  0.25846819    -0.32400
C666        C  0.32648775  0.79920015  0.26863142     0.36600
H667        H  0.29672481  0.77159800  0.21594853     0.17000
O668        O  0.34317558  0.78181282  0.19283850    -0.59900
H669        H  0.36804991  0.81489628  0.27058748     0.17000
O670        O  0.32159709  0.80380187  0.29380453    -0.60000
H671        H  0.31692055  0.82375871  0.29512724     0.44000
H672        H  0.33283194  0.79563400  0.18274983     0.43900
C673        C  0.36763949  0.28799043  0.26264041    -0.05100
C674        C  0.34853177  0.29670121  0.24436860    -0.32500
C675        C  0.32153796  0.30399143  0.25102404     0.36700
C676        C  0.31294272  0.30281831  0.27644409    -0.05500
C677        C  0.33178238  0.29358131  0.29476896    -0.32400
C678        C  0.35906963  0.28645535  0.28805807     0.36600
H679        H  0.35458162  0.29820227  0.22472498     0.17000
O680        O  0.30364488  0.31224719  0.23242252    -0.59900
H681        H  0.32549304  0.29238179  0.31437117     0.17000
O682        O  0.37681442  0.27704004  0.30628297    -0.60000
H683        H  0.38323229  0.29388414  0.31530716     0.44000
H684        H  0.29341107  0.29525504  0.22749345     0.43900
C685        C  0.23900585  0.37370850  0.27063836    -0.05100
C686        C  0.25290010  0.39737456  0.27936998    -0.32500
C687        C  0.24626288  0.42368971  0.27014701     0.36700
C688        C  0.22561802  0.42661280  0.25152376    -0.05500
C689        C  0.21144082  0.40282244  0.24313361    -0.32400
C690        C  0.21790092  0.37656791  0.25263146     0.36600
H691        H  0.26932126  0.39536648  0.29315537     0.17000
O692        O  0.26138344  0.44604085  0.27827889    -0.59900
H693        H  0.19543237  0.40446554  0.22894047     0.17000
O694        O  0.20468599  0.35366537  0.24308215    -0.60000
H695        H  0.18666703  0.35287167  0.25204360     0.44000
H696        H  0.25415913  0.45034134  0.29538025     0.43900
C697        C  0.65319938  0.31651675  0.28454213    -0.05100
C698        C  0.62991474  0.33282322  0.29024755    -0.32500
C699        C  0.60323960  0.32421981  0.28317776     0.36700
C700        C  0.59966856  0.29926882  0.26968754    -0.05500
C701        C  0.62286575  0.28261645  0.26474447    -0.32400
C702        C  0.64937041  0.29089312  0.27223341     0.36600
H703        H  0.63252805  0.35266133  0.29956847     0.17000
O704        O  0.58120314  0.34141961  0.28767374    -0.59900
H705        H  0.62054367  0.26335875  0.25440088     0.17000
O706        O  0.67166192  0.27486525  0.26555751    -0.60000
H707        H  0.67217026  0.25972068  0.27816635     0.44000
H708        H  0.57590704  0.33797395  0.30548866     0.43900
C709        C  0.72480114  0.38799870  0.26604254    -0.05100
C710        C  0.73831622  0.40909789  0.27954377    -0.32500
C711        C  0.74500832  0.43437500  0.26791863     0.36700
C712        C  0.73842647  0.43878568  0.24229176    -0.05500
C713        C  0.72522072  0.41746231  0.22878420    -0.32400
C714        C  0.71836382  0.39236099  0.24042572     0.36600
H715        H  0.74339395  0.40607895  0.29925710     0.17000
O716        O  0.75827468  0.45442960  0.28172356    -0.59900
H717        H  0.71981993  0.42034630  0.20913454     0.17000
O718        O  0.70540068  0.37214675  0.22653424    -0.60000
H719        H  0.72051806  0.36027184  0.21995359     0.44000
H720        H  0.77830405  0.45087769  0.27916598     0.43900
C721        C  0.99741248  0.74702586  0.56913181    -0.05100
C722        C  0.97570507  0.76201108  0.55812008    -0.32500
C723        C  0.97224308  0.76272321  0.53193092     0.36700
C724        C  0.99057408  0.74803472  0.51607559    -0.05500
C725        C  0.01282345  0.73369225  0.52705511    -0.32400
C726        C  0.01643643  0.73325384  0.55331939     0.36600
H727        H  0.96138264  0.77355143  0.56985263     0.17000
O728        O  0.95167872  0.77897410  0.52206419    -0.59900
H729        H  0.02722038  0.72227776  0.51530171     0.17000
O730        O  0.03773433  0.71809260  0.56332437    -0.60000
H731        H  0.05451707  0.72965712  0.56090555     0.44000
H732        H  0.93413260  0.76917287  0.52599418     0.43900
C733        C  0.11779736  0.78341638  0.73931559    -0.05100
C734        C  0.14151829  0.76857169  0.73195253    -0.32500
C735        C  0.16779731  0.77603928  0.74085376     0.36700
C736        C  0.17072265  0.79885645  0.75724583    -0.05500
C737        C  0.14705881  0.81365975  0.76463121    -0.32400
C738        C  0.12083637  0.80623757  0.75576269     0.36600
H739        H  0.13975257  0.75111315  0.71917049     0.17000
O740        O  0.19061302  0.76189442  0.73234997    -0.59900
H741        H  0.14896204  0.83131072  0.77719510     0.17000
O742        O  0.09853976  0.82209198  0.76267614    -0.60000
H743        H  0.09699065  0.83646128  0.74940389     0.44000
H744        H  0.19024662  0.74388827  0.74133858     0.43900
C745        C  0.88661080  0.78504625  0.74132842    -0.05100
C746        C  0.86421242  0.76758349  0.73566189    -0.32500
C747        C  0.83724555  0.77457885  0.74276658     0.36700
C748        C  0.83208681  0.79966030  0.75559241    -0.05500
C749        C  0.85451297  0.81698819  0.76173746    -0.32400
C750        C  0.88168792  0.80969583  0.75494568     0.36600
H751        H  0.86752990  0.74857189  0.72517102     0.17000
O752        O  0.81580537  0.75771336  0.73544639    -0.59900
H753        H  0.85088847  0.83640876  0.77149178     0.17000
O754        O  0.90290873  0.82772538  0.76008803    -0.60000
H755        H  0.90776769  0.82431638  0.77799231     0.44000
H756        H  0.81630030  0.74172620  0.74717048     0.43900
C757        C  0.98801358  0.35265466  0.60090682    -0.05100
C758        C  0.96509896  0.36326407  0.58787362    -0.32500
C759        C  0.96472625  0.36436384  0.56148600     0.36700
C760        C  0.98736816  0.35419692  0.54736414    -0.05500
C761        C  0.01064613  0.34429057  0.56045969    -0.32400
C762        C  0.01110429  0.34342956  0.58689830     0.36600
H763        H  0.94730759  0.37093135  0.59820067     0.17000
O764        O  0.94209077  0.37564422  0.54984873    -0.59900
H765        H  0.02835028  0.33629876  0.55024970     0.17000
O766        O  0.03387520  0.33256826  0.59867625    -0.60000
H767        H  0.02992799  0.31248453  0.60039024     0.44000
H768        H  0.94685919  0.39542917  0.54723763     0.43900
C769        C  0.09551665  0.30130501  0.77295092    -0.05100
C770        C  0.11818146  0.31912300  0.76928875    -0.32500
C771        C  0.14501167  0.31110646  0.77601051     0.36700
C772        C  0.14973824  0.28459010  0.78622131    -0.05500
C773        C  0.12699770  0.26703123  0.79058079    -0.32400
C774        C  0.10002422  0.27530538  0.78431207     0.36600
H775        H  0.11518728  0.33921878  0.76063614     0.17000
O776        O  0.16671679  0.32854981  0.77077279    -0.59900
H777        H  0.13023738  0.24657845  0.79843081     0.17000
O778        O  0.07861127  0.25699261  0.78762495    -0.60000
H779        H  0.07367076  0.25838866  0.80575953     0.44000
H780        H  0.16631863  0.34279170  0.78429313     0.43900
C781        C  0.28477251  0.04533083  0.58088125    -0.05100
C782        C  0.27288865  0.02251180  0.56851986    -0.32500
C783        C  0.27169976  0.02129676  0.54220463     0.36700
C784        C  0.28301831  0.04294792  0.52759341    -0.05500
C785        C  0.29513755  0.06570915  0.53997477    -0.32400
C786        C  0.29615460  0.06697920  0.56636185     0.36600
H787        H  0.26362754  0.00583888  0.57928755     0.17000
O788        O  0.25853682  0.99923619  0.53112204    -0.59900
H789        H  0.30413679  0.08250515  0.52918089     0.17000
O790        O  0.30863736  0.08930278  0.57768308    -0.60000
H791        H  0.32819232  0.08370133  0.58012775     0.44000
H792        H  0.23895650  0.00506059  0.52938114     0.43900
C793        C  0.23933886  0.16126237  0.75244868    -0.05100
C794        C  0.22765752  0.18141538  0.73656069    -0.32500
C795        C  0.21947476  0.20721995  0.74602248     0.36700
C796        C  0.22321487  0.21343741  0.77171738    -0.05500
C797        C  0.23537806  0.19362971  0.78756107    -0.32400
C798        C  0.24321837  0.16761041  0.77818158     0.36600
H799        H  0.22449643  0.17712067  0.71670675     0.17000
O800        O  0.20889704  0.22666305  0.72983744    -0.59900
H801        H  0.23858059  0.19828449  0.80736163     0.17000
O802        O  0.25578574  0.14909969  0.79405671    -0.60000
H803        H  0.24068294  0.14152436  0.80471616     0.44000
H804        H  0.18965241  0.22059754  0.72635596     0.43900
C805        C  0.25258806  0.92948923  0.75305185    -0.05100
C806        C  0.26958308  0.90727430  0.74564282    -0.32500
C807        C  0.26354368  0.88008877  0.75302238     0.36700
C808        C  0.23985004  0.87457044  0.76766061    -0.05500
C809        C  0.22316709  0.89674074  0.77560829    -0.32400
C810        C  0.22957141  0.92408294  0.76871781     0.36600
H811        H  0.28741262  0.91091541  0.73366603     0.17000
O812        O  0.27982577  0.85882215  0.74434224    -0.59900
H813        H  0.20477707  0.89275350  0.78676882     0.17000
O814        O  0.21203826  0.94500762  0.77584289    -0.60000
H815        H  0.21696243  0.94923000  0.79360856     0.44000
H816        H  0.29559914  0.85791329  0.75625903     0.43900
C817        C  0.81218075  0.26724878  0.77611960    -0.05100
C818        C  0.83082204  0.27694595  0.79444183    -0.32500
C819        C  0.85699566  0.28710115  0.78746518     0.36700
C820        C  0.86485344  0.28773940  0.76179083    -0.05500
C821        C  0.84595614  0.27833933  0.74355667    -0.32400
C822        C  0.81995416  0.26816022  0.75048339     0.36600
H823        H  0.82507309  0.27661695  0.81421236     0.17000
O824        O  0.87440895  0.29682947  0.80586848    -0.59900
H825        H  0.85132604  0.27863604  0.72371172     0.17000
O826        O  0.80171106  0.26037908  0.73192598    -0.60000
H827        H  0.80863698  0.24234211  0.72550969     0.44000
H828        H  0.87080675  0.31703736  0.80679784     0.43900
C829        C  0.68607353  0.04830476  0.50644966    -0.05100
C830        C  0.69953962  0.02541507  0.51716222    -0.32500
C831        C  0.70202243  0.02268745  0.54333201     0.36700
C832        C  0.69082124  0.04305627  0.55947985    -0.05500
C833        C  0.67738143  0.06602780  0.54877264    -0.32400
C834        C  0.67504966  0.06881564  0.52252071     0.36600
H835        H  0.70884810  0.00974775  0.50520951     0.17000
O836        O  0.71683946  0.00082986  0.55277697    -0.59900
H837        H  0.66832932  0.08180691  0.56077097     0.17000
O838        O  0.66093783  0.09102740  0.51285134    -0.60000
H839        H  0.67357263  0.10709710  0.51486131     0.44000
H840        H  0.70478277  0.98436089  0.55050231     0.43900
C841        C  0.73757953  0.19795891  0.76410896    -0.05100
C842        C  0.74426340  0.19398942  0.73858722    -0.32500
C843        C  0.73734705  0.16943873  0.72609939     0.36700
C844        C  0.72341013  0.14809711  0.73913004    -0.05500
C845        C  0.71660689  0.15204113  0.76470174    -0.32400
C846        C  0.72352246  0.17679327  0.77718607     0.36600
H847        H  0.75529052  0.20995414  0.72828231     0.17000
O848        O  0.74596085  0.16586562  0.70162129    -0.59900
H849        H  0.70593085  0.13588577  0.77503923     0.17000
O850        O  0.71708046  0.17979378  0.80225827    -0.60000
H851        H  0.73362382  0.17313610  0.81148724     0.44000
H852        H  0.73396364  0.17813718  0.69138316     0.43900
C853        C  0.73441966  0.91902157  0.72760318    -0.05100
C854        C  0.75657080  0.91822876  0.74472327    -0.32500
C855        C  0.76675770  0.89291596  0.75368075     0.36700
C856        C  0.75469697  0.86777414  0.74567662    -0.05500
C857        C  0.73207568  0.86859968  0.72910423    -0.32400
C858        C  0.72204796  0.89389194  0.71994185     0.36600
H859        H  0.76638257  0.93727947  0.75085675     0.17000
O860        O  0.78839502  0.89300054  0.77040324    -0.59900
H861        H  0.72231868  0.84951142  0.72297486     0.17000
O862        O  0.69942606  0.89388176  0.70432572    -0.60000
H863        H  0.70628527  0.88696680  0.68782047     0.44000
H864        H  0.77967135  0.89245237  0.78735635     0.43900
C865        C  0.77488330  0.54515417  0.00802216    -0.05100
C866        C  0.78512980  0.52307666  0.02246163    -0.32500
C867        C  0.78318116  0.52320766  0.04887200     0.36700
C868        C  0.77071748  0.54577867  0.06153564    -0.05500
C869        C  0.76062017  0.56794349  0.04700538    -0.32400
C870        C  0.76272244  0.56785010  0.02060697     0.36600
H871        H  0.79489691  0.50556425  0.01324628     0.17000
O872        O  0.79451569  0.50159496  0.06202312    -0.59900
H873        H  0.75049858  0.58535272  0.05601226     0.17000
O874        O  0.75133409  0.58934014  0.00731409    -0.60000
H875        H  0.76461352  0.60491058  0.00912225     0.44000
H876        H  0.78153371  0.48586276  0.05963184     0.43900
C877        C  0.48528767  0.23979202  0.04366892    -0.05100
C878        C  0.50730950  0.25423069  0.05493864    -0.32500
C879        C  0.50882937  0.25746063  0.08117981     0.36700
C880        C  0.48816735  0.24590860  0.09681409    -0.05500
C881        C  0.46617817  0.23139207  0.08549600    -0.32400
C882        C  0.46452718  0.22842471  0.05923322     0.36600
H883        H  0.52316954  0.26372351  0.04334377     0.17000
O884        O  0.52976033  0.27327807  0.09111629    -0.59900
H885        H  0.45021753  0.22198128  0.09702242     0.17000
O886        O  0.44316768  0.21333586  0.04909778    -0.60000
H887        H  0.42662328  0.22538610  0.05058986     0.44000
H888        H  0.54662613  0.26166294  0.08978530     0.43900
C889        C  0.18410420  0.54530471  0.02534062    -0.05100
C890        C  0.17064062  0.52342072  0.03783152    -0.32500
C891        C  0.17006764  0.52208221  0.06427363     0.36700
C892        C  0.18293147  0.54297630  0.07872748    -0.05500
C893        C  0.19629639  0.56485592  0.06625444    -0.32400
C894        C  0.19707616  0.56610875  0.03988217     0.36600
H895        H  0.16033995  0.50732559  0.02707811     0.17000
O896        O  0.15590950  0.50091233  0.07576841    -0.59900
H897        H  0.20689948  0.58078129  0.07697152     0.17000
O898        O  0.21210155  0.58681630  0.02862232    -0.60000
H899        H  0.20081359  0.60383252  0.03069805     0.44000
H900        H  0.16782357  0.48432634  0.07374717     0.43900
C901        C  0.49354446  0.84057239  0.01445747    -0.05100
C902        C  0.47101350  0.85410420  0.02591048    -0.32500
C903        C  0.46798599  0.85456140  0.05222314     0.36700
C904        C  0.48768576  0.84134276  0.06765832    -0.05500
C905        C  0.51016908  0.82785329  0.05622903    -0.32400
C906        C  0.51301056  0.82704926  0.02998083     0.36600
H907        H  0.45577656  0.86465868  0.01446618     0.17000
O908        O  0.44587562  0.86830331  0.06258170    -0.59900
H909        H  0.52525918  0.81705583  0.06764898     0.17000
O910        O  0.53443800  0.81210877  0.01983368    -0.60000
H911        H  0.52669286  0.79340231  0.01655584     0.44000
H912        H  0.45272019  0.88730660  0.06609690     0.43900
C913        C  0.73540057  0.69984539  0.80762973    -0.05100
C914        C  0.71733859  0.67757517  0.80303780    -0.32500
C915        C  0.72356195  0.65085375  0.81168998     0.36700
C916        C  0.74811252  0.64610955  0.82540145    -0.05500
C917        C  0.76678610  0.66813105  0.82883139    -0.32400
C918        C  0.76065269  0.69475854  0.82004780     0.36600
H919        H  0.69783660  0.68114430  0.79352020     0.17000
O920        O  0.70471554  0.62999508  0.80789139    -0.59900
H921        H  0.78585479  0.66490006  0.83914148     0.17000
O922        O  0.77880513  0.71597230  0.82497270    -0.60000
H923        H  0.77257212  0.72403518  0.84124914     0.44000
H924        H  0.69230495  0.63059366  0.82281407     0.43900
C925        C  0.66842304  0.77639187  0.82307608    -0.05100
C926        C  0.66389189  0.77147389  0.84883632    -0.32500
C927        C  0.63932129  0.77997013  0.86059660     0.36700
C928        C  0.61842079  0.79307207  0.84639484    -0.05500
C929        C  0.62311540  0.79817610  0.82062896    -0.32400
C930        C  0.64792988  0.79014405  0.80901465     0.36600
H931        H  0.67949116  0.76092085  0.85989516     0.17000
O932        O  0.63536500  0.77392071  0.88562161    -0.59900
H933        H  0.60746595  0.80842909  0.80941230     0.17000
O934        O  0.65171595  0.79532686  0.78379922    -0.60000
H935        H  0.64471050  0.77856886  0.77501028     0.44000
H936        H  0.64687544  0.78752671  0.89496700     0.43900
C937        C  0.26049491  0.70993492  0.83545733    -0.05100
C938        C  0.24945661  0.68930187  0.81971097    -0.32500
C939        C  0.24069179  0.66384784  0.82965779     0.36700
C940        C  0.24252831  0.65883713  0.85582947    -0.05500
C941        C  0.25315590  0.67974474  0.87158925    -0.32400
C942        C  0.26241718  0.70496019  0.86156333     0.36600
H943        H  0.24792733  0.69284560  0.79957337     0.17000
O944        O  0.23002306  0.64421915  0.81364048    -0.59900
H945        H  0.25475503  0.67639305  0.89174216     0.17000
O946        O  0.27254401  0.72498097  0.87749870    -0.60000
H947        H  0.29173934  0.71916131  0.88143863     0.44000
H948        H  0.20979746  0.64770313  0.81338775     0.43900
C949        C  0.33605945  0.77919437  0.82343474    -0.05100
C950        C  0.35930068  0.76243773  0.81900171    -0.32500
C951        C  0.38575074  0.77105153  0.82666231     0.36700
C952        C  0.38906356  0.79645975  0.83953823    -0.05500
C953        C  0.36583355  0.81335314  0.84349492    -0.32400
C954        C  0.33959359  0.80506189  0.83537874     0.36600
H955        H  0.35685841  0.74244416  0.80991956     0.17000
O956        O  0.40779639  0.75361553  0.82307501    -0.59900
H957        H  0.36792820  0.83295058  0.85333325     0.17000
O958        O  0.31720832  0.82153304  0.84078410    -0.60000
H959        H  0.31765330  0.83649130  0.82798316     0.44000
H960        H  0.41328169  0.75615055  0.80517774     0.43900
C961        C  0.31668272  0.29501562  0.85186353    -0.05100
C962        C  0.31630401  0.27271046  0.86882306    -0.32500
C963        C  0.34099876  0.26230099  0.87901372     0.36700
C964        C  0.36670753  0.27383623  0.87181713    -0.05500
C965        C  0.36699701  0.29565928  0.85430707    -0.32400
C966        C  0.34233657  0.30629274  0.84446546     0.36600
H967        H  0.29674850  0.26365249  0.87455297     0.17000
O968        O  0.33980669  0.24026959  0.89530092    -0.59900
H969        H  0.38640498  0.30499392  0.84857592     0.17000
O970        O  0.34354249  0.32776429  0.82758243    -0.60000
H971        H  0.34364433  0.31884746  0.81069725     0.44000
H972        H  0.33258774  0.24796688  0.91138951     0.43900
C973        C  0.23543485  0.42855990  0.85731318    -0.05100
C974        C  0.21889141  0.40565793  0.86364915    -0.32500
C975        C  0.22640966  0.37886646  0.85641641     0.36700
C976        C  0.25108539  0.37441408  0.84285427    -0.05500
C977        C  0.26763696  0.39718708  0.83625191    -0.32400
C978        C  0.25979029  0.42420320  0.84308373     0.36600
H979        H  0.20006425  0.40845265  0.87448831     0.17000
O980        O  0.21027518  0.35693130  0.86390340    -0.59900
H981        H  0.28670193  0.39399197  0.82585088     0.17000
O982        O  0.27689456  0.44589996  0.83705230    -0.60000
H983        H  0.27316380  0.44983708  0.81901366     0.44000
H984        H  0.19450129  0.35655508  0.85194817     0.43900
C985        C  0.64854527  0.28545385  0.84759882    -0.05100
C986        C  0.62842473  0.27281919  0.83230391    -0.32500
C987        C  0.60252697  0.26518836  0.84226372     0.36700
C988        C  0.59668242  0.26955466  0.86807045    -0.05500
C989        C  0.61719907  0.28155222  0.88341138    -0.32400
C990        C  0.64275887  0.28971100  0.87335622     0.36600
H991        H  0.63261764  0.26934847  0.81245104     0.17000
O992        O  0.58354091  0.25254056  0.82684193    -0.59900
H993        H  0.61329597  0.28515508  0.90328100     0.17000
O994        O  0.66232714  0.30109848  0.88901338    -0.60000
H995        H  0.65605022  0.32035133  0.89221160     0.44000
H996        H  0.57566549  0.26763201  0.81641084     0.43900
C997        C  0.71627395  0.36188089  0.83219385    -0.05100
C998        C  0.74165844  0.36662541  0.84427105    -0.32500
C999        C  0.74995390  0.39350327  0.85075027     0.36700
C1000       C  0.73294867  0.41628041  0.84479916    -0.05500
C1001       C  0.70827469  0.41167754  0.83142146    -0.32400
C1002       C  0.69982271  0.38467801  0.82523669     0.36600
H1003       H  0.75476309  0.34931566  0.84938133     0.17000
O1004       O  0.77503808  0.39738565  0.86236360    -0.59900
H1005       H  0.69502799  0.42894836  0.82655786     0.17000
O1006       O  0.67533410  0.38075953  0.81267661    -0.63200
H1007       H  0.68053445  0.37917308  0.79461242     0.44000
H1008       H  0.77261989  0.39024323  0.87977211     0.43900
loop_ 
_geom_bond_atom_site_label_1 
_geom_bond_atom_site_label_2 
_geom_bond_distance 
_geom_bond_site_symmetry_2 
_ccdc_geom_bond_type 
C1            C2   1.403       .  A
C1            C6   1.408       .  A
C1          C985   1.485       .  S
C2            C3   1.399       .  A
C2            H7   1.084       .  S
C3            C4   1.399       .  A
C3          C997   1.482       .  S
C4            C5   1.412       .  A
C4            H8   1.080       .  S
C5            C6   1.415       .  A
C5          C159   1.506       .  S
C6            H9   1.081       .  S
C10          C11   1.400       .  A
C10          C15   1.400       .  A
C10         C976   1.479       .  S
C11          C12   1.404       .  A
C11          H16   1.084       .  S
C12          C13   1.407       .  A
C12         C961   1.485       .  S
C13          C14   1.415       .  A
C13          H17   1.081       .  S
C14          C15   1.408       .  A
C14         C218   1.502       .  S
C15          H18   1.081       .  S
C19          C20   1.406       .  A
C19          C24   1.401       .  A
C19         C937   1.482       .  S
C20          C21   1.416       .  A
C20          H25   1.081       .  S
C21          C22   1.411       .  A
C21         C249   1.506       .  S
C22          C23   1.401       .  A
C22          H26   1.080       .  S
C23          C24   1.399       .  A
C23         C949   1.481       .  S
C24          H27   1.084       .  S
C28          C29   1.405       .  A
C28          C33   1.401       .  A
C28         C913   1.485       .  S
C29          C30   1.414       .  A
C29          H34   1.081       .  S
C30          C31   1.412       .  A
C30         C258   1.503       .  S
C31          C32   1.403       .  A
C31          H35   1.081       .  S
C32          C33   1.400       .  A
C32         C925   1.482       .  S
C33          H36   1.084       .  S
N37          N38   1.322       .  A
N37          C41   1.342       .  A
N37         Cu45   2.068       .  S
N38          C39   1.348       .  A
N38         Cu44   2.083       .  S
C39          C40   1.387       .  A
C39          H42   1.081       .  S
C40          C41   1.383       .  A
C40         C952   1.481       .  S
C41          H43   1.082       .  S
Cu44         N47   2.083       .  S
Cu45         N55   2.068       .  S
Cu46         N48   2.074       .  S
Cu46         N54   2.073       .  S
N47          N48   1.322       .  A
N47          C51   1.346       .  A
N48          C49   1.345       .  A
C49          C50   1.386       .  A
C49          H52   1.081       .  S
C50          C51   1.387       .  A
C50         C928   1.485       .  S
C51          H53   1.082       .  S
N54          N55   1.320       .  A
N54          C58   1.343       .  A
N55          C56   1.345       .  A
C56          C57   1.387       .  A
C56          H59   1.082       .  S
C57          C58   1.388       .  A
C57         C901   1.486   1_556  S
C58          H60   1.081       .  S
N61          N62   1.323       .  A
N61          C65   1.345       .  A
N61         Cu69   2.074       .  S
N62          C63   1.346       .  A
N62         Cu68   2.083       .  S
C63          C64   1.387       .  A
C63          H66   1.082       .  S
C64          C65   1.385       .  A
C64         C940   1.484       .  S
C65          H67   1.082       .  S
Cu68         N71   2.082       .  S
Cu69         N79   2.073       .  S
Cu70         N72   2.067       .  S
Cu70         N78   2.067       .  S
N71          N72   1.322       .  A
N71          C75   1.348       .  A
N72          C73   1.341       .  A
C73          C74   1.383       .  A
C73          H76   1.082       .  S
C74          C75   1.388       .  A
C74         C973   1.483       .  S
C75          H77   1.081       .  S
N78          N79   1.320       .  A
N78          C82   1.345       .  A
N79          C80   1.344       .  A
C80          C81   1.388       .  A
C80          H83   1.081       .  S
C81          C82   1.386       .  A
C81         C889   1.485   1_556  S
C82          H84   1.082       .  S
N85          N86   1.322       .  A
N85          C89   1.343       .  A
N85         Cu93   2.071       .  S
N86          C87   1.350       .  A
N86         Cu92   2.092       .  S
C87          C88   1.391       .  A
C87          H90   1.081       .  S
C88          C89   1.384       .  A
C88         C988   1.488       .  S
C89          H91   1.082       .  S
Cu92         N95   2.093       .  S
Cu93        N103   2.070       .  S
Cu94         N96   2.073       .  S
Cu94        N102   2.072       .  S
N95          N96   1.323       .  A
N95          C99   1.347       .  A
N96          C97   1.345       .  A
C97          C98   1.385       .  A
C97         H100   1.081       .  S
C98          C99   1.389       .  A
C98         C964   1.487       .  S
C99         H101   1.082       .  S
N102        N103   1.320       .  A
N102        C106   1.345   1_556  A
N103        C104   1.344       .  A
C104        C105   1.386   1_556  A
C104        H107   1.082   1_556  S
C105        C106   1.387       .  A
C105        C877   1.484       .  S
C106        H108   1.081       .  S
N109        N110   1.322       .  A
N109        C113   1.341       .  A
N109       Cu117   2.067       .  S
N110        C111   1.349       .  A
N110       Cu116   2.085       .  S
C111        C112   1.388       .  A
C111        H114   1.082       .  S
C112        C113   1.382       .  A
C112       C1000   1.481       .  S
C113        H115   1.081       .  S
Cu116       N119   2.086       .  S
Cu117       N127   2.067       .  S
Cu118       N120   2.080       .  S
Cu118       N126   2.079       .  S
N119        N120   1.324       .  A
N119        C123   1.348       .  A
N120        C121   1.344       .  A
C121        C122   1.384       .  A
C121        H124   1.082       .  S
C122        C123   1.388       .  A
C122        C916   1.484       .  S
C123        H125   1.082       .  S
N126        N127   1.320       .  A
N126        C130   1.347       .  A
N127        C128   1.344       .  A
C128        C129   1.386       .  A
C128        H131   1.082       .  S
C129        C130   1.390       .  A
C129        C865   1.487   1_556  S
C130        H132   1.081       .  S
N133        N134   1.323       .  A
N133        C137   1.344       .  A
N133       Cu141   2.073       .  S
N134        C135   1.347       .  A
N134       Cu140   2.087   1_565  S
C135        C136   1.388       .  A
C135        H138   1.082       .  S
C136        C137   1.384       .  A
C136        C853   1.484       .  S
C137        H139   1.081       .  S
Cu140       N143   2.086       .  S
Cu141       N151   2.073   1_565  S
Cu142       N144   2.063       .  S
Cu142       N150   2.062       .  S
N143        N144   1.322       .  A
N143        C147   1.348       .  A
N144        C145   1.341       .  A
C145        C146   1.383       .  A
C145        H148   1.081       .  S
C146        C147   1.388       .  A
C146        C844   1.483       .  S
C147        H149   1.082       .  S
N150        N151   1.319       .  A
N150        C154   1.344       .  A
N151        C152   1.344       .  A
C152        C153   1.389       .  A
C152        H155   1.081   1_545  S
C153        C154   1.386       .  A
C153        C832   1.484       .  S
C154        H156   1.082       .  S
C157        C158   1.406       .  A
C157        C162   1.399       .  A
C157        C841   1.483       .  S
C158        C159   1.415       .  A
C158        H163   1.081       .  S
C159        C160   1.417       .  A
C160        C161   1.401       .  A
C160        H164   1.080       .  S
C161        C162   1.396       .  A
C161        C817   1.485       .  S
C162        H165   1.084       .  S
N166        N167   1.322   1_565  A
N166        C170   1.342       .  A
N166       Cu174   2.067   1_565  S
N167        C168   1.349   1_545  A
N167       Cu173   2.092       .  S
C168        C169   1.390       .  A
C168        H171   1.081       .  S
C169        C170   1.383       .  A
C169        C805   1.485       .  S
C170        H172   1.082       .  S
Cu173       N176   2.092       .  S
Cu174       N184   2.067       .  S
Cu175       N177   2.060       .  S
Cu175       N183   2.059       .  S
N176        N177   1.323       .  A
N176        C180   1.348       .  A
N177        C178   1.340       .  A
C178        C179   1.381       .  A
C178        H181   1.082       .  S
C179        C180   1.390       .  A
C179        C793   1.483       .  S
C180        H182   1.081       .  S
N183        N184   1.319       .  A
N183        C187   1.344       .  A
N184        C185   1.342       .  A
C185        C186   1.386       .  A
C185        H188   1.082       .  S
C186        C187   1.385       .  A
C186        C781   1.479       .  S
C187        H189   1.082       .  S
N190        N191   1.323       .  A
N190        C194   1.342       .  A
N190       Cu198   2.072       .  S
N191        C192   1.350       .  A
N191       Cu197   2.091   1_455  S
C192        C193   1.390       .  A
C192        H195   1.081       .  S
C193        C194   1.382       .  A
C193        C769   1.485       .  S
C194        H196   1.082       .  S
Cu197       N200   2.090       .  S
Cu198       N208   2.071   1_455  S
Cu199       N201   2.068       .  S
Cu199       N207   2.067       .  S
N200        N201   1.322       .  A
N200        C204   1.349       .  A
N201        C202   1.341       .  A
C202        C203   1.384       .  A
C202        H205   1.082       .  S
C203        C204   1.390       .  A
C203        C820   1.486       .  S
C204        H206   1.081       .  S
N207        N208   1.319       .  A
N207        C211   1.343       .  A
N208        C209   1.346   1_655  A
C209        C210   1.389   1_455  A
C209        H212   1.081       .  S
C210        C211   1.386       .  A
C210        C757   1.486       .  S
C211        H213   1.082       .  S
C214        C215   1.401       .  A
C214        C219   1.402       .  A
C214        C796   1.479       .  S
C215        C216   1.401       .  A
C215        H220   1.084       .  S
C216        C217   1.405       .  A
C216        C772   1.487       .  S
C217        C218   1.415       .  A
C217        H221   1.080       .  S
C218        C219   1.409       .  A
C219        H222   1.081       .  S
N223        N224   1.324       .  A
N223        C227   1.343       .  A
N223       Cu231   2.070       .  S
N224        C225   1.346       .  A
N224       Cu230   2.086       .  S
C225        C226   1.388       .  A
C225        H228   1.081       .  S
C226        C227   1.383       .  A
C226        C733   1.483       .  S
C227        H229   1.082       .  S
Cu230       N233   2.085   1_455  S
Cu231       N241   2.069       .  S
Cu232       N234   2.064       .  S
Cu232       N240   2.064       .  S
N233        N234   1.321       .  A
N233        C237   1.350       .  A
N234        C235   1.340       .  A
C235        C236   1.382       .  A
C235        H238   1.082       .  S
C236        C237   1.389       .  A
C236        C745   1.482       .  S
C237        H239   1.082       .  S
N240        N241   1.319   1_655  A
N240        C244   1.342       .  A
N241        C242   1.347       .  A
C242        C243   1.388   1_455  A
C242        H245   1.081       .  S
C243        C244   1.385       .  A
C243        C721   1.482       .  S
C244        H246   1.082       .  S
C247        C248   1.405       .  A
C247        C252   1.401       .  A
C247        C736   1.482       .  S
C248        C249   1.412       .  A
C248        H253   1.080       .  S
C249        C250   1.416       .  A
C250        C251   1.402       .  A
C250        H254   1.080       .  S
C251        C252   1.397       .  A
C251        C808   1.482       .  S
C252        H255   1.084       .  S
C256        C257   1.405       .  A
C256        C261   1.404       .  A
C256        C856   1.486       .  S
C257        C258   1.412       .  A
C257        H262   1.081       .  S
C258        C259   1.410       .  A
C259        C260   1.404       .  A
C259        H263   1.081       .  S
C260        C261   1.402       .  A
C260        C748   1.485       .  S
C261        H264   1.084       .  S
C265        C266   1.408       .  A
C265        C270   1.402       .  A
C265        C709   1.486       .  S
C266        C267   1.415       .  A
C266        H271   1.082       .  S
C267        C268   1.413       .  A
C267        C515   1.506       .  S
C268        C269   1.403       .  A
C268        H272   1.081       .  S
C269        C270   1.399       .  A
C269        C697   1.485       .  S
C270        H273   1.084       .  S
C274        C275   1.395       .  A
C274        C279   1.401       .  A
C274        C685   1.477       .  S
C275        C276   1.398       .  A
C275        H280   1.084       .  S
C276        C277   1.407       .  A
C276        C676   1.487       .  S
C277        C278   1.422       .  A
C277        H281   1.079       .  S
C278        C279   1.415       .  A
C278        C480   1.513       .  S
C279        H282   1.079       .  S
C283        C284   1.399       .  A
C283        C288   1.403       .  A
C283        C661   1.479       .  S
C284        C285   1.398       .  A
C284        H289   1.084       .  S
C285        C286   1.402       .  A
C285        C652   1.481       .  S
C286        C287   1.413       .  A
C286        H290   1.080       .  S
C287        C288   1.412       .  A
C287        C423   1.503       .  S
C288        H291   1.081       .  S
C292        C293   1.403       .  A
C292        C297   1.398       .  A
C292        C625   1.479       .  S
C293        C294   1.415       .  A
C293        H298   1.080       .  S
C294        C295   1.415       .  A
C294        C522   1.508       .  S
C295        C296   1.405       .  A
C295        H299   1.081       .  S
C296        C297   1.399       .  A
C296        C637   1.484       .  S
C297        H300   1.084       .  S
N301        N302   1.323       .  A
N301        C305   1.344       .  A
N301       Cu309   2.079       .  S
N302        C303   1.348       .  A
N302       Cu308   2.086       .  S
C303        C304   1.388       .  A
C303        H306   1.082       .  S
C304        C305   1.386       .  A
C304        C712   1.487       .  S
C305        H307   1.082       .  S
Cu308       N311   2.086       .  S
Cu309       N319   2.079       .  S
Cu310       N312   2.073       .  S
Cu310       N318   2.073       .  S
N311        N312   1.322       .  A
N311        C315   1.347       .  A
N312        C313   1.343       .  A
C313        C314   1.385       .  A
C313        H316   1.082       .  S
C314        C315   1.389       .  A
C314        C640   1.486       .  S
C315        H317   1.081       .  S
N318        N319   1.320       .  A
N318        C322   1.345       .  A
N319        C320   1.345       .  A
C320        C321   1.391       .  A
C320        H323   1.080       .  S
C321        C322   1.389       .  A
C321        C868   1.493       .  S
C322        H324   1.081       .  S
N325        N326   1.322       .  A
N325        C329   1.341       .  A
N325       Cu333   2.070       .  S
N326        C327   1.348       .  A
N326       Cu332   2.080       .  S
C327        C328   1.388       .  A
C327        H330   1.081       .  S
C328        C329   1.384       .  A
C328        C628   1.484       .  S
C329        H331   1.082       .  S
Cu332       N335   2.080       .  S
Cu333       N343   2.070       .  S
Cu334       N336   2.068       .  S
Cu334       N342   2.068       .  S
N335        N336   1.323       .  A
N335        C339   1.346       .  A
N336        C337   1.342       .  A
C337        C338   1.383       .  A
C337        H340   1.081       .  S
C338        C339   1.386       .  A
C338        C664   1.480       .  S
C339        H341   1.082       .  S
N342        N343   1.320       .  A
N342        C346   1.345       .  A
N343        C344   1.344       .  A
C344        C345   1.387       .  A
C344        H347   1.082       .  S
C345        C346   1.386       .  A
C345        C904   1.482       .  S
C346        H348   1.081       .  S
N349        N350   1.322       .  A
N349        C353   1.343       .  A
N349       Cu357   2.070       .  S
N350        C351   1.345       .  A
N350       Cu356   2.077       .  S
C351        C352   1.388       .  A
C351        H354   1.081       .  S
C352        C353   1.385       .  A
C352        C688   1.485       .  S
C353        H355   1.082       .  S
Cu356       N359   2.076       .  S
Cu357       N367   2.069       .  S
Cu358       N360   2.070       .  S
Cu358       N366   2.070       .  S
N359        N360   1.322       .  A
N359        C363   1.347       .  A
N360        C361   1.342       .  A
C361        C362   1.383       .  A
C361        H364   1.082       .  S
C362        C363   1.386       .  A
C362        C649   1.479       .  S
C363        H365   1.082       .  S
N366        N367   1.320       .  A
N366        C370   1.344       .  A
N367        C368   1.345       .  A
C368        C369   1.386       .  A
C368        H371   1.081       .  S
C369        C370   1.386       .  A
C369        C892   1.482       .  S
C370        H372   1.082       .  S
N373        N374   1.324       .  A
N373        C377   1.342       .  A
N373       Cu381   2.070       .  S
N374        C375   1.350       .  A
N374       Cu380   2.097       .  S
C375        C376   1.389       .  A
C375        H378   1.082       .  S
C376        C377   1.381       .  A
C376        C700   1.482       .  S
C377        H379   1.082       .  S
Cu380       N383   2.096       .  S
Cu381       N391   2.069       .  S
Cu382       N384   2.062       .  S
Cu382       N390   2.061       .  S
N383        N384   1.322       .  A
N383        C387   1.351       .  A
N384        C385   1.340       .  A
C385        C386   1.382       .  A
C385        H388   1.082       .  S
C386        C387   1.391       .  A
C386        C673   1.485       .  S
C387        H389   1.081       .  S
N390        N391   1.318       .  A
N390        C394   1.343       .  A
N391        C392   1.345       .  A
C392        C393   1.390       .  A
C392        H395   1.080       .  S
C393        C394   1.387       .  A
C393        C880   1.487       .  S
C394        H396   1.082       .  S
N397        N398   1.322       .  A
N397        C401   1.340       .  A
N397       Cu405   2.061       .  S
N398        C399   1.350       .  A
N398       Cu404   2.088   1_455  S
C399        C400   1.389       .  A
C399        H402   1.082       .  S
C400        C401   1.381       .  A
C400        C601   1.482       .  S
C401        H403   1.081       .  S
Cu404       N407   2.088       .  S
Cu405       N415   2.061   1_455  S
Cu406       N408   2.074       .  S
Cu406       N414   2.073       .  S
N407        N408   1.323       .  A
N407        C411   1.348       .  A
N408        C409   1.343       .  A
C409        C410   1.385       .  A
C409        H412   1.081       .  S
C410        C411   1.388       .  A
C410        C613   1.484       .  S
C411        H413   1.082       .  S
N414        N415   1.319       .  A
N414        C418   1.344       .  A
N415        C416   1.344   1_655  A
C416        C417   1.386   1_455  A
C416        H419   1.082       .  S
C417        C418   1.389       .  A
C417        C724   1.485       .  S
C418        H420   1.080       .  S
C421        C422   1.404       .  A
C421        C426   1.403       .  A
C421        C589   1.482       .  S
C422        C423   1.412       .  A
C422        H427   1.081       .  S
C423        C424   1.411       .  A
C424        C425   1.403       .  A
C424        H428   1.081       .  S
C425        C426   1.400       .  A
C425        C604   1.484       .  S
C426        H429   1.083       .  S
N430        N431   1.322       .  A
N430        C434   1.339       .  A
N430       Cu438   2.061       .  S
N431        C432   1.350       .  A
N431       Cu437   2.092       .  S
C432        C433   1.391       .  A
C432        H435   1.081       .  S
C433        C434   1.382       .  A
C433        C577   1.486       .  S
C434        H436   1.082       .  S
Cu437       N440   2.092   1_545  S
Cu438       N448   2.060       .  S
Cu439       N441   2.064   1_545  S
Cu439       N447   2.063       .  S
N440        N441   1.323       .  A
N440        C444   1.349       .  A
N441        C442   1.341       .  A
C442        C443   1.381       .  A
C442        H445   1.081       .  S
C443        C444   1.388       .  A
C443        C592   1.481       .  S
C444        H446   1.082       .  S
N447        N448   1.318       .  A
N447        C451   1.343       .  A
N448        C449   1.343       .  A
C449        C450   1.386       .  A
C449        H452   1.082       .  S
C450        C451   1.388       .  A
C450        C784   1.482       .  S
C451        H453   1.081   1_545  S
N454        N455   1.322       .  A
N454        C458   1.343       .  A
N454       Cu462   2.072       .  S
N455        C456   1.348       .  A
N455       Cu461   2.089   1_455  S
C456        C457   1.391       .  A
C456        H459   1.081       .  S
C457        C458   1.386       .  A
C457        C553   1.490       .  S
C458        H460   1.082       .  S
Cu461       N464   2.088       .  S
Cu462       N472   2.071       .  S
Cu463       N465   2.080       .  S
Cu463       N471   2.079       .  S
N464        N465   1.323       .  A
N464        C468   1.348       .  A
N465        C466   1.345       .  A
C466        C467   1.386       .  A
C466        H469   1.081       .  S
C467        C468   1.387       .  A
C467        C568   1.487       .  S
C468        H470   1.082       .  S
N471        N472   1.320   1_655  A
N471        C475   1.345       .  A
N472        C473   1.345       .  A
C473        C474   1.388   1_455  A
C473        H476   1.081       .  S
C474        C475   1.390       .  A
C474        C760   1.491       .  S
C475        H477   1.081       .  S
C478        C479   1.403       .  A
C478        C483   1.399       .  A
C478        C580   1.484       .  S
C479        C480   1.415       .  A
C479        H484   1.079       .  S
C480        C481   1.420       .  A
C481        C482   1.405       .  A
C481        H485   1.079       .  S
C482        C483   1.397       .  A
C482        C556   1.486       .  S
C483        H486   1.084       .  S
N487        N488   1.324       .  A
N487        C491   1.340       .  A
N487       Cu495   2.069       .  S
N488        C489   1.353       .  A
N488       Cu494   2.104       .  S
C489        C490   1.391       .  A
C489        H492   1.082       .  S
C490        C491   1.381       .  A
C490        C532   1.486       .  S
C491        H493   1.082       .  S
Cu494       N497   2.103       .  S
Cu495       N505   2.067       .  S
Cu496       N498   2.063   1_545  S
Cu496       N504   2.061       .  S
N497        N498   1.323   1_545  A
N497        C501   1.352   1_545  A
N498        C499   1.340       .  A
C499        C500   1.382       .  A
C499        H502   1.082       .  S
C500        C501   1.393       .  A
C500        C541   1.489       .  S
C501        H503   1.081       .  S
N504        N505   1.318       .  A
N504        C508   1.342       .  A
N505        C506   1.346       .  A
C506        C507   1.388       .  A
C506        H509   1.081       .  S
C507        C508   1.386       .  A
C507        C829   1.482       .  S
C508        H510   1.082       .  S
C511        C512   1.401       .  A
C511        C516   1.406       .  A
C511        C565   1.485       .  S
C512        C513   1.400       .  A
C512        H517   1.084       .  S
C513        C514   1.405       .  A
C513        C529   1.492       .  S
C514        C515   1.417       .  A
C514        H518   1.081       .  S
C515        C516   1.415       .  A
C516        H519   1.082       .  S
C520        C521   1.405       .  A
C520        C525   1.398       .  A
C520        C544   1.485       .  S
C521        C522   1.418       .  A
C521        H526   1.080       .  S
C522        C523   1.416       .  A
C523        C524   1.402       .  A
C523        H527   1.080       .  S
C524        C525   1.399       .  A
C524        C616   1.482       .  S
C525        H528   1.084       .  S
C529        C530   1.408       .  A
C529        C534   1.411       .  A
C530        C531   1.408       .  A
C530        H535   1.083       .  S
C531        C532   1.409       .  A
C531        O536   1.371       .  S
C532        C533   1.404       .  A
C533        C534   1.397       .  A
C533        H537   1.083       .  S
C534        O538   1.373       .  S
O536        H540   0.992       .  S
O538        H539   0.992       .  S
C541        C542   1.406       .  A
C541        C546   1.412       .  A
C542        C543   1.397       .  A
C542        H547   1.083       .  S
C543        C544   1.408       .  A
C543        O548   1.373       .  S
C544        C545   1.405       .  A
C545        C546   1.407       .  A
C545        H549   1.083       .  S
C546        O550   1.371       .  S
O548        H552   0.992       .  S
O550        H551   0.992       .  S
C553        C554   1.407       .  A
C553        C558   1.413       .  A
C554        C555   1.399       .  A
C554        H559   1.083       .  S
C555        C556   1.408       .  A
C555        O560   1.372       .  S
C556        C557   1.403       .  A
C557        C558   1.406       .  A
C557        H561   1.084       .  S
C558        O562   1.371       .  S
O560        H564   0.992       .  S
O562        H563   0.992       .  S
C565        C566   1.403       .  A
C565        C570   1.408       .  A
C566        C567   1.399       .  A
C566        H571   1.084       .  S
C567        C568   1.411       .  A
C567        O572   1.372       .  S
C568        C569   1.407       .  A
C569        C570   1.406       .  A
C569        H573   1.083       .  S
C570        O574   1.371       .  S
O572        H576   0.992       .  S
O574        H575   0.992       .  S
C577        C578   1.405       .  A
C577        C582   1.411       .  A
C578        C579   1.394       .  A
C578        H583   1.082       .  S
C579        C580   1.408       .  A
C579        O584   1.372       .  S
C580        C581   1.405       .  A
C581        C582   1.406       .  A
C581        H585   1.083       .  S
C582        O586   1.371       .  S
O584        H588   0.992       .  S
O586        H587   0.992       .  S
C589        C590   1.402       .  A
C589        C594   1.410       .  A
C590        C591   1.398       .  A
C590        H595   1.084       .  S
C591        C592   1.411       .  A
C591        O596   1.372       .  S
C592        C593   1.404       .  A
C593        C594   1.403       .  A
C593        H597   1.083       .  S
C594        O598   1.372       .  S
O596        H600   0.992       .  S
O598        H599   0.992       .  S
C601        C602   1.405       .  A
C601        C606   1.410       .  A
C602        C603   1.405       .  A
C602        H607   1.083       .  S
C603        C604   1.409       .  A
C603        O608   1.372       .  S
C604        C605   1.403       .  A
C605        C606   1.398       .  A
C605        H609   1.084       .  S
C606        O610   1.373       .  S
O608        H612   0.992       .  S
O610        H611   0.992       .  S
C613        C614   1.407       .  A
C613        C618   1.411       .  A
C614        C615   1.404       .  A
C614        H619   1.083       .  S
C615        C616   1.408       .  A
C615        O620   1.372       .  S
C616        C617   1.401       .  A
C617        C618   1.398       .  A
C617        H621   1.084       .  S
C618        O622   1.371       .  S
O620        H624   0.992       .  S
O622        H623   0.992       .  S
C625        C626   1.404       .  A
C625        C630   1.406       .  A
C626        C627   1.403       .  A
C626        H631   1.084       .  S
C627        C628   1.412       .  A
C627        O632   1.371       .  S
C628        C629   1.405       .  A
C629        C630   1.397       .  A
C629        H633   1.083       .  S
C630        O634   1.372       .  S
O632        H636   0.992       .  S
O634        H635   0.992       .  S
C637        C638   1.403       .  A
C637        C642   1.408       .  A
C638        C639   1.403       .  A
C638        H643   1.084       .  S
C639        C640   1.411       .  A
C639        O644   1.371       .  S
C640        C641   1.406       .  A
C641        C642   1.400       .  A
C641        H645   1.083       .  S
C642        O646   1.373       .  S
O644        H648   0.992       .  S
O646        H647   0.992       .  S
C649        C650   1.404       .  A
C649        C654   1.410       .  A
C650        C651   1.398       .  A
C650        H655   1.084       .  S
C651        C652   1.408       .  A
C651        O656   1.372       .  S
C652        C653   1.404       .  A
C653        C654   1.402       .  A
C653        H657   1.084       .  S
C654        O658   1.371       .  S
O656        H660   0.992       .  S
O658        H659   0.992       .  S
C661        C662   1.402       .  A
C661        C666   1.408       .  A
C662        C663   1.398       .  A
C662        H667   1.084       .  S
C663        C664   1.411       .  A
C663        O668   1.372       .  S
C664        C665   1.405       .  A
C665        C666   1.401       .  A
C665        H669   1.083       .  S
C666        O670   1.372       .  S
O668        H672   0.992       .  S
O670        H671   0.992       .  S
C673        C674   1.404       .  A
C673        C678   1.410       .  A
C674        C675   1.396       .  A
C674        H679   1.083       .  S
C675        C676   1.410       .  A
C675        O680   1.372       .  S
C676        C677   1.406       .  A
C677        C678   1.408       .  A
C677        H681   1.083       .  S
C678        O682   1.371       .  S
O680        H684   0.992       .  S
O682        H683   0.992       .  S
C685        C686   1.402       .  A
C685        C690   1.405       .  A
C686        C687   1.399       .  A
C686        H691   1.084       .  S
C687        C688   1.412       .  A
C687        O692   1.371       .  S
C688        C689   1.408       .  A
C689        C690   1.400       .  A
C689        H693   1.083       .  S
C690        O694   1.372       .  S
O692        H696   0.992       .  S
O694        H695   0.992       .  S
C697        C698   1.406       .  A
C697        C702   1.409       .  A
C698        C699   1.405       .  A
C698        H703   1.084       .  S
C699        C700   1.409       .  A
C699        O704   1.371       .  S
C700        C701   1.404       .  A
C701        C702   1.399       .  A
C701        H705   1.084       .  S
C702        O706   1.372       .  S
O704        H708   0.992       .  S
O706        H707   0.992       .  S
C709        C710   1.404       .  A
C709        C714   1.409       .  A
C710        C711   1.405       .  A
C710        H715   1.084       .  S
C711        C712   1.412       .  A
C711        O716   1.371       .  S
C712        C713   1.405       .  A
C713        C714   1.400       .  A
C713        H717   1.083       .  S
C714        O718   1.372       .  S
O716        H720   0.992       .  S
O718        H719   0.991       .  S
C721        C722   1.403       .  A
C721        C726   1.409   1_655  A
C722        C723   1.398       .  A
C722        H727   1.083       .  S
C723        C724   1.410       .  A
C723        O728   1.372       .  S
C724        C725   1.407   1_655  A
C725        C726   1.403       .  A
C725        H729   1.083       .  S
C726        O730   1.371       .  S
O728        H732   0.992       .  S
O730        H731   0.992       .  S
C733        C734   1.406       .  A
C733        C738   1.410       .  A
C734        C735   1.402       .  A
C734        H739   1.083       .  S
C735        C736   1.408       .  A
C735        O740   1.372       .  S
C736        C737   1.403       .  A
C737        C738   1.398       .  A
C737        H741   1.084       .  S
C738        O742   1.371       .  S
O740        H744   0.992       .  S
O742        H743   0.992       .  S
C745        C746   1.403       .  A
C745        C750   1.410       .  A
C746        C747   1.397       .  A
C746        H751   1.084       .  S
C747        C748   1.409       .  A
C747        O752   1.372       .  S
C748        C749   1.406       .  A
C749        C750   1.406       .  A
C749        H753   1.083       .  S
C750        O754   1.371       .  S
O752        H756   0.992       .  S
O754        H755   0.992       .  S
C757        C758   1.404       .  A
C757        C762   1.411   1_655  A
C758        C759   1.399       .  A
C758        H763   1.083       .  S
C759        C760   1.412       .  A
C759        O764   1.370       .  S
C760        C761   1.407   1_655  A
C761        C762   1.402       .  A
C761        H765   1.082       .  S
C762        O766   1.371       .  S
O764        H768   0.992       .  S
O766        H767   0.992       .  S
C769        C770   1.405       .  A
C769        C774   1.410       .  A
C770        C771   1.400       .  A
C770        H775   1.084       .  S
C771        C772   1.409       .  A
C771        O776   1.372       .  S
C772        C773   1.406       .  A
C773        C774   1.404       .  A
C773        H777   1.083       .  S
C774        O778   1.371       .  S
O776        H780   0.992       .  S
O778        H779   0.992       .  S
C781        C782   1.403       .  A
C781        C786   1.409       .  A
C782        C783   1.397       .  A
C782        H787   1.083       .  S
C783        C784   1.411       .  A
C783        O788   1.371   1_545  S
C784        C785   1.406       .  A
C785        C786   1.400       .  A
C785        H789   1.083       .  S
C786        O790   1.371       .  S
O788        H792   0.992   1_565  S
O790        H791   0.992       .  S
C793        C794   1.407       .  A
C793        C798   1.410       .  A
C794        C795   1.399       .  A
C794        H799   1.083       .  S
C795        C796   1.405       .  A
C795        O800   1.372       .  S
C796        C797   1.404       .  A
C797        C798   1.402       .  A
C797        H801   1.084       .  S
C798        O802   1.371       .  S
O800        H804   0.992       .  S
O802        H803   0.992       .  S
C805        C806   1.406       .  A
C805        C810   1.411       .  A
C806        C807   1.400       .  A
C806        H811   1.083       .  S
C807        C808   1.407       .  A
C807        O812   1.372       .  S
C808        C809   1.404       .  A
C809        C810   1.404       .  A
C809        H813   1.084       .  S
C810        O814   1.371       .  S
O812        H816   0.992       .  S
O814        H815   0.992       .  S
C817        C818   1.404       .  A
C817        C822   1.409       .  A
C818        C819   1.405       .  A
C818        H823   1.083       .  S
C819        C820   1.412       .  A
C819        O824   1.371       .  S
C820        C821   1.405       .  A
C821        C822   1.397       .  A
C821        H825   1.083       .  S
C822        O826   1.373       .  S
O824        H828   0.992       .  S
O826        H827   0.992       .  S
C829        C830   1.404       .  A
C829        C834   1.409       .  A
C830        C831   1.398       .  A
C830        H835   1.083       .  S
C831        C832   1.410       .  A
C831        O836   1.371       .  S
C832        C833   1.406       .  A
C833        C834   1.402       .  A
C833        H837   1.083       .  S
C834        O838   1.372       .  S
O836        H840   0.992   1_545  S
O838        H839   0.992       .  S
C841        C842   1.402       .  A
C841        C846   1.409       .  A
C842        C843   1.396       .  A
C842        H847   1.084       .  S
C843        C844   1.411       .  A
C843        O848   1.372       .  S
C844        C845   1.406       .  A
C845        C846   1.404       .  A
C845        H849   1.083       .  S
C846        O850   1.371       .  S
O848        H852   0.992       .  S
O850        H851   0.992       .  S
C853        C854   1.405       .  A
C853        C858   1.410       .  A
C854        C855   1.402       .  A
C854        H859   1.083       .  S
C855        C856   1.410       .  A
C855        O860   1.372       .  S
C856        C857   1.404       .  A
C857        C858   1.402       .  A
C857        H861   1.084       .  S
C858        O862   1.372       .  S
O860        H864   0.992       .  S
O862        H863   0.992       .  S
C865        C866   1.404       .  A
C865        C870   1.409       .  A
C866        C867   1.402       .  A
C866        H871   1.083       .  S
C867        C868   1.413       .  A
C867        O872   1.371       .  S
C868        C869   1.407       .  A
C869        C870   1.402       .  A
C869        H873   1.082       .  S
C870        O874   1.371       .  S
O872        H876   0.992       .  S
O874        H875   0.992       .  S
C877        C878   1.404       .  A
C877        C882   1.409       .  A
C878        C879   1.401       .  A
C878        H883   1.083       .  S
C879        C880   1.411       .  A
C879        O884   1.371       .  S
C880        C881   1.406       .  A
C881        C882   1.401       .  A
C881        H885   1.083       .  S
C882        O886   1.372       .  S
O884        H888   0.992       .  S
O886        H887   0.992       .  S
C889        C890   1.406       .  A
C889        C894   1.411       .  A
C890        C891   1.403       .  A
C890        H895   1.083       .  S
C891        C892   1.409       .  A
C891        O896   1.372       .  S
C892        C893   1.403       .  A
C893        C894   1.399       .  A
C893        H897   1.083       .  S
C894        O898   1.371       .  S
O896        H900   0.992       .  S
O898        H899   0.992       .  S
C901        C902   1.406       .  A
C901        C906   1.412       .  A
C902        C903   1.402       .  A
C902        H907   1.083       .  S
C903        C904   1.410       .  A
C903        O908   1.371       .  S
C904        C905   1.403       .  A
C905        C906   1.398       .  A
C905        H909   1.083       .  S
C906        O910   1.371       .  S
O908        H912   0.992       .  S
O910        H911   0.992       .  S
C913        C914   1.404       .  A
C913        C918   1.409       .  A
C914        C915   1.403       .  A
C914        H919   1.084       .  S
C915        C916   1.411       .  A
C915        O920   1.371       .  S
C916        C917   1.405       .  A
C917        C918   1.400       .  A
C917        H921   1.083       .  S
C918        O922   1.372       .  S
O920        H924   0.992       .  S
O922        H923   0.992       .  S
C925        C926   1.403       .  A
C925        C930   1.408       .  A
C926        C927   1.401       .  A
C926        H931   1.084       .  S
C927        C928   1.411       .  A
C927        O932   1.371       .  S
C928        C929   1.406       .  A
C929        C930   1.401       .  A
C929        H933   1.083       .  S
C930        O934   1.372       .  S
O932        H936   0.992       .  S
O934        H935   0.992       .  S
C937        C938   1.403       .  A
C937        C942   1.408       .  A
C938        C939   1.402       .  A
C938        H943   1.084       .  S
C939        C940   1.411       .  A
C939        O944   1.371       .  S
C940        C941   1.405       .  A
C941        C942   1.401       .  A
C941        H945   1.083       .  S
C942        O946   1.372       .  S
O944        H948   0.992       .  S
O946        H947   0.992       .  S
C949        C950   1.404       .  A
C949        C954   1.409       .  A
C950        C951   1.404       .  A
C950        H955   1.084       .  S
C951        C952   1.411       .  A
C951        O956   1.371       .  S
C952        C953   1.403       .  A
C953        C954   1.397       .  A
C953        H957   1.084       .  S
C954        O958   1.372       .  S
O956        H960   0.992       .  S
O958        H959   0.992       .  S
C961        C962   1.404       .  A
C961        C966   1.408       .  A
C962        C963   1.404       .  A
C962        H967   1.084       .  S
C963        C964   1.413       .  A
C963        O968   1.372       .  S
C964        C965   1.405       .  A
C965        C966   1.400       .  A
C965        H969   1.083       .  S
C966        O970   1.371       .  S
O968        H972   0.992       .  S
O970        H971   0.992       .  S
C973        C974   1.404       .  A
C973        C978   1.412       .  A
C974        C975   1.396       .  A
C974        H979   1.083       .  S
C975        C976   1.407       .  A
C975        O980   1.373       .  S
C976        C977   1.403       .  A
C977        C978   1.405       .  A
C977        H981   1.084       .  S
C978        O982   1.371       .  S
O980        H984   0.992       .  S
O982        H983   0.992       .  S
C985        C986   1.404       .  A
C985        C990   1.407       .  A
C986        C987   1.406       .  A
C986        H991   1.084       .  S
C987        C988   1.411       .  A
C987        O992   1.371       .  S
C988        C989   1.406       .  A
C989        C990   1.400       .  A
C989        H993   1.083       .  S
C990        O994   1.372       .  S
O992        H996   0.992       .  S
O994        H995   0.992       .  S
C997        C998   1.403       .  A
C997       C1002   1.408       .  A
C998        C999   1.399       .  A
C998       H1003   1.084       .  S
C999       C1000   1.410       .  A
C999       O1004   1.373       .  S
C1000      C1001   1.405       .  A
C1001      C1002   1.403       .  A
C1001      H1005   1.083       .  S
C1002      O1006   1.371       .  S
O1004      H1008   0.992       .  S
O1006      H1007   0.992       .  S
