geometry optimzed in LAMMPS
_audit_creation_date              2020-12-01 
_audit_creation_method            'lammps2cif' 
_symmetry_space_group_name_H-M    'P1' 
_symmetry_Int_Tables_number       1 
_symmetry_cell_setting            triclinic 
loop_ 
_symmetry_equiv_pos_as_xyz 
  x,y,z 
_cell_length_a                    41.26683375 
_cell_length_b                    41.21437332921571 
_cell_length_c                    44.10811279127078 
_cell_angle_alpha                 111.3939156665752 
_cell_angle_beta                  71.26150425366015 
_cell_angle_gamma                 128.82880192089576 
loop_ 
_atom_site_label 
_atom_site_type_symbol 
_atom_site_fract_x 
_atom_site_fract_y 
_atom_site_fract_z 
_atom_site_charge 
C1          C  0.35821050  0.14929430  0.98970898     0.79800
N2          N  0.38259442  0.19250421  0.99286094    -0.78500
C3          C  0.36512242  0.21244469  0.99477096     0.82200
N4          N  0.32385371  0.18843147  0.99205165    -0.78500
C5          C  0.29932230  0.14565543  0.98871079     0.82300
N6          N  0.31668381  0.12609817  0.98726215    -0.80200
C7          C  0.35129038  0.14080294  0.23421507     0.79800
N8          N  0.37506144  0.18259951  0.23326627    -0.78500
C9          C  0.35664840  0.20086780  0.23388713     0.82200
N10         N  0.31433800  0.17701301  0.23570198    -0.78500
C11         C  0.29013405  0.13545610  0.23729964     0.82300
N12         N  0.30891236  0.11719650  0.23594745    -0.80200
C13         C  0.13284290  0.31619029  0.34753810     0.79800
N14         N  0.17342990  0.33653970  0.35123223    -0.78500
C15         C  0.18685242  0.31446249  0.35258346     0.82200
N16         N  0.15945701  0.27182452  0.34995302    -0.78500
C17         C  0.11872800  0.25104632  0.34675022     0.82300
N18         N  0.10530300  0.27342179  0.34586214    -0.80200
C19         C  0.14855024  0.33536932  0.10221051     0.79800
N20         N  0.12912385  0.29327997  0.10006340    -0.78500
C21         C  0.15128605  0.27855286  0.09884882     0.82200
N22         N  0.19313090  0.30669486  0.09995698    -0.78500
C23         C  0.21298399  0.34861649  0.10173055     0.82300
N24         N  0.19062119  0.36292876  0.10298812    -0.80200
O25         O  0.05398437  0.41537273  0.35520276    -0.75700
O26         O  0.05608724  0.42253328  0.40854610    -0.54600
C27         C  0.06416102  0.41099451  0.37738331     0.78000
O28         O  0.06017824  0.09375156  0.38923701    -0.60300
O29         O  0.99502964  0.05941914  0.37596972    -0.53300
C30         C  0.03383219  0.09095959  0.37707728     0.70000
O31         O  0.11247767  0.06274353  0.44035218    -0.74900
O32         O  0.08948197  0.50603884  0.45934252    -0.55400
C33         C  0.11660766  0.04277122  0.45361326     0.76000
O34         O  0.00659793  0.45948555  0.31108302    -0.60000
O35         O  0.46643608  0.98521177  0.32982868    -0.53100
C36         C  0.48608993  0.47200859  0.30741428     0.72600
Zr37       Zr  0.01792889  0.44405869  0.35401181     2.54700
O38         O  0.08268035  0.47456175  0.31648221    -0.80600
O39         O  0.47963542  0.37151080  0.32017656    -0.94000
Zr40       Zr  0.06093321  0.05180678  0.41576709     2.64700
O41         O  0.12689068  0.07873500  0.37937536    -0.99000
O42         O  0.08708364  0.12180049  0.45263361    -0.81000
O43         O  0.05727834  0.49038190  0.39926075    -0.84400
O44         O  0.02213529  0.00538880  0.37105147    -2.19100
O45         O  0.36043149  0.38169077  0.39092734    -0.67800
O46         O  0.38403067  0.44202397  0.37736215    -0.52300
C47         C  0.35545807  0.40320742  0.38009136     0.71000
O48         O  0.48870606  0.00909724  0.02133498    -0.60700
O49         O  0.01152425  0.46555405  0.50211897    -0.52700
C50         C  0.50286073  0.49190691  0.02653941     0.72800
O51         O  0.42353731  0.03360367  0.47564228    -0.72100
O52         O  0.42162328  0.02579968  0.42218520    -0.50700
C53         C  0.41352340  0.03777811  0.45316868     0.74200
O54         O  0.41622251  0.35124491  0.44039857    -0.67400
O55         O  0.48045549  0.38606923  0.45551730    -0.54600
C56         C  0.44201146  0.35402889  0.45328546     0.72600
Zr57       Zr  0.41287188  0.39139680  0.41401043     2.77500
O58         O  0.34850487  0.35776617  0.45148874    -0.98100
O59         O  0.38837756  0.32373754  0.37402322    -0.79000
Zr60       Zr  0.45751539  0.00271014  0.47744113     2.70100
O61         O  0.40616086  0.49008395  0.01490010    -0.80200
O62         O  0.02259593  0.09686691  0.01506810    -0.99300
Zr63       Zr  0.01939626  0.45403033  0.44318473     2.21500
Zr64       Zr  0.45667389  0.99275496  0.38840337     2.11100
O65         O  0.41764912  0.45581789  0.43401433    -2.48000
O66         O  0.45025981  0.43687322  0.45989962    -0.80000
O67         O  0.44814831  0.42618403  0.36949100    -0.72200
O68         O  0.02592877  0.01901588  0.46119324    -2.33200
O69         O  0.48092969  0.40712747  0.39638242    -2.29400
O70         O  0.99402858  0.03869465  0.43500192    -0.74000
H71         H  0.03620752  0.01985842  0.35315058     0.78000
H72         H  0.04234932  0.03677151  0.47931263     0.79100
H73         H  0.38998886  0.44979676  0.44012662     0.81300
H74         H  0.47927831  0.38110343  0.38986571     0.79000
H75         H  0.06525777  0.12638860  0.45578015     0.42000
H76         H  0.01593056  0.11434919  0.01146647     0.41000
H77         H  0.39111507  0.45892711  0.00576893     0.40600
H78         H  0.33235779  0.36755757  0.45043520     0.38600
H79         H  0.36096536  0.30265720  0.38470080     0.41700
H80         H  0.50017737  0.37169049  0.30080386     0.36500
H81         H  0.09624474  0.50574978  0.32351914     0.42600
H82         H  0.11860505  0.06388398  0.35699611     0.39000
H83         H  0.33241464  0.32702265  0.44074536     0.43900
H84         H  0.97242084  0.35395116  0.32863944     0.42700
H85         H  0.13857198  0.10885238  0.38127188     0.42800
H86         H  0.49599735  0.09549905  0.03099380     0.43200
O87         O  0.05955312  0.42439494  0.10811734    -0.75700
O88         O  0.05442427  0.42456066  0.16123912    -0.54600
C89         C  0.06527968  0.41573153  0.13032475     0.78000
O90         O  0.08765974  0.11589707  0.14607499    -0.60300
O91         O  0.02651378  0.08672590  0.12869357    -0.53300
C92         C  0.06497054  0.11704861  0.13267366     0.70000
O93         O  0.12545909  0.06744354  0.19494778    -0.74900
O94         O  0.09337987  0.50493036  0.20948709    -0.55400
C95         C  0.12418962  0.04301206  0.20755475     0.76000
O96         O  0.01802812  0.47241811  0.06255241    -0.60000
O97         O  0.48799997  0.00720051  0.08104731    -0.53100
C98         C  0.50179993  0.49010220  0.05952381     0.72600
Zr99       Zr  0.02605625  0.45540572  0.10601435     2.54700
O100        O  0.08760742  0.47471448  0.06501315    -0.80600
O101        O  0.48496544  0.38363887  0.07112981    -0.94000
Zr102      Zr  0.08070019  0.06631659  0.16961864     2.64700
O103        O  0.14539237  0.08867729  0.13174878    -0.99000
O104        O  0.11537863  0.13588881  0.20715216    -0.81000
O105        O  0.06641521  0.49801682  0.15059725    -0.84400
O106        O  0.04397489  0.02542571  0.12337095    -2.19100
O107        O  0.37576288  0.41223272  0.14105089    -0.67800
O108        O  0.40893301  0.47688824  0.12924194    -0.52300
C109        C  0.37722762  0.43850524  0.13054903     0.71000
O110        O  0.47511188  0.99599834  0.27087987    -0.60700
O111        O  0.01254835  0.46765063  0.25232467    -0.52700
C112        C  0.49002116  0.47696184  0.27488619     0.72800
O113        O  0.44464504  0.05633417  0.22717596    -0.72100
O114        O  0.44817149  0.05376815  0.17372241    -0.50700
C115        C  0.43814891  0.06389259  0.20466151     0.74200
O116        O  0.41253789  0.36264021  0.19116579    -0.67400
O117        O  0.47610477  0.38934142  0.20311439    -0.54600
C118        C  0.43669144  0.36072502  0.20200787     0.72600
Zr119      Zr  0.42004344  0.41066010  0.16520735     2.77500
O120        O  0.35490256  0.38521895  0.20273448    -0.98100
O121        O  0.38803220  0.34332082  0.12475900    -0.79000
Zr122      Zr  0.47353558  0.02041769  0.22868184     2.70100
O123        O  0.40727824  0.49491983  0.26799109    -0.80200
O124        O  0.01462031  0.08954788  0.26901118    -0.99300
Zr125      Zr  0.02365952  0.46206765  0.19435651     2.21500
Zr126      Zr  0.47958146  0.01717268  0.13983912     2.11100
O127        O  0.43459380  0.47973261  0.18567074    -2.48000
O128        O  0.45770999  0.45094578  0.21093230    -0.80000
O129        O  0.46166046  0.44692257  0.12161149    -0.72200
O130        O  0.03938843  0.03111748  0.21396058    -2.33200
O131        O  0.48433408  0.41733869  0.14710779    -2.29400
O132        O  0.01669024  0.05991309  0.18813819    -0.74000
H133        H  0.05975025  0.04042742  0.10572757     0.78000
H134        H  0.05458518  0.04585732  0.23267887     0.79100
H135        H  0.40875814  0.47758127  0.19152459     0.81300
H136        H  0.47908316  0.38947640  0.14022806     0.79000
H137        H  0.09575100  0.13171179  0.22779113     0.42000
H138        H  0.99329140  0.09262103  0.28547390     0.41000
H139        H  0.39046882  0.46346338  0.26025994     0.40600
H140        H  0.35221757  0.40931729  0.21093272     0.38600
H141        H  0.36785269  0.32123130  0.13785998     0.41700
H142        H  0.49638694  0.38706449  0.04818744     0.36500
H143        H  0.11118341  0.50075404  0.07687699     0.42600
H144        H  0.13775735  0.08313167  0.11041549     0.39000
H145        H  0.33246863  0.36331211  0.18846301     0.43900
H146        H  0.96854604  0.38533282  0.06099495     0.42700
H147        H  0.16338885  0.12020498  0.13883930     0.42800
H148        H  0.49124047  0.08977016  0.28426742     0.43200
C149        C  0.12890741  0.17910819  0.11091698    -0.09600
C150        C  0.08539805  0.15576673  0.12047796     0.06600
C151        C  0.06321056  0.17024428  0.11809814    -0.03300
C152        C  0.08519523  0.20891001  0.10886518    -0.07800
C153        C  0.12918491  0.23402264  0.10175923     0.05700
C154        C  0.15078418  0.21728863  0.10105230    -0.02800
Br155      Br  0.20958862  0.24295951  0.08598492    -0.02500
H156        H  0.14624964  0.16747528  0.11098041     0.09600
H157        H  0.06754365  0.21993303  0.10841867     0.07700
Br158      Br  0.00347675  0.14112073  0.12912150    -0.02900
C159        C  0.28454185  0.36677274  0.08473364    -0.09600
C160        C  0.25773946  0.37820179  0.10541561     0.06600
C161        C  0.27321320  0.41439432  0.13170398    -0.03300
C162        C  0.31391324  0.43612909  0.13845044    -0.07800
C163        C  0.33930688  0.42252662  0.11903198     0.05700
C164        C  0.32541624  0.38926819  0.09114545    -0.02800
Br165      Br  0.36181027  0.37400398  0.06178986    -0.02500
H166        H  0.27325432  0.33953972  0.06413644     0.09600
H167        H  0.32480618  0.46194679  0.15999441     0.07700
Br168      Br  0.23909974  0.43257872  0.16154886    -0.02900
C169        C  0.14449276  0.38955341  0.09518550    -0.09600
C170        C  0.12441558  0.35235770  0.10640136     0.06600
C171        C  0.08369824  0.33525686  0.12407324    -0.03300
C172        C  0.06453434  0.35577583  0.13045591    -0.07800
C173        C  0.08513418  0.39330372  0.11987651     0.05700
C174        C  0.12535497  0.41023431  0.10198368    -0.02800
Br175      Br  0.15731343  0.46383834  0.08958172    -0.02500
H176        H  0.17590345  0.40352327  0.08200293     0.09600
H177        H  0.03375155  0.34306481  0.14468513     0.07700
Br178      Br  0.05375324  0.28716232  0.14352513    -0.02900
C179        C  0.03061703  0.14816852  0.37468621    -0.09600
C180        C  0.05004729  0.12687455  0.36339070     0.06600
C181        C  0.08736986  0.14283693  0.34145047    -0.03300
C182        C  0.10654587  0.18139559  0.33344783    -0.07800
C183        C  0.08989422  0.20538649  0.34759340     0.05700
C184        C  0.05031260  0.18748232  0.36711418    -0.02800
Br185      Br  0.02370182  0.21664319  0.38725482    -0.02500
H186        H  0.00159810  0.13575105  0.39130503     0.09600
H187        H  0.13634809  0.19416689  0.31776585     0.07700
Br188      Br  0.11475299  0.11444210  0.32266227    -0.02900
C189        C  0.26311062  0.37256736  0.34592847    -0.09600
C190        C  0.22990950  0.33700981  0.35939910     0.06600
C191        C  0.23844230  0.32424814  0.37979552    -0.03300
C192        C  0.27940555  0.34629224  0.38565464    -0.07800
C193        C  0.31300827  0.38146384  0.37184631     0.05700
C194        C  0.30441374  0.39476749  0.35181089    -0.02800
Br195      Br  0.34692648  0.44179701  0.33086719    -0.02500
H196        H  0.25697443  0.38284363  0.33035226     0.09600
H197        H  0.28469551  0.33604916  0.40186865     0.07700
Br198      Br  0.19589824  0.27912425  0.40273341    -0.02900
C199        C  0.13536576  0.38147435  0.37354509    -0.09600
C200        C  0.11774159  0.34179556  0.35123459     0.06600
C201        C  0.08516812  0.32719238  0.33477347    -0.03300
C202        C  0.06913997  0.35117555  0.34254296    -0.07800
C203        C  0.08528696  0.38960857  0.36642306     0.05700
C204        C  0.11960949  0.40536993  0.38107122    -0.02800
Br205      Br  0.14727705  0.45991304  0.41069362    -0.02500
H206        H  0.16087946  0.39360153  0.38604098     0.09600
H207        H  0.04319210  0.33914999  0.33063059     0.07700
Br208      Br  0.06259460  0.27599870  0.30082917    -0.02900
C209        C  0.40151421  0.13595722  0.24815067    -0.09600
C210        C  0.37182725  0.11990083  0.22816238     0.06600
C211        C  0.36450561  0.08601523  0.20078304    -0.03300
C212        C  0.38607692  0.06805740  0.19420323    -0.07800
C213        C  0.41555040  0.08360110  0.21421273     0.05700
C214        C  0.42334467  0.11793948  0.24147422    -0.02800
Br215      Br  0.46545587  0.14359825  0.26866131    -0.02500
H216        H  0.40806696  0.16288114  0.26871289     0.09600
H217        H  0.38027302  0.04215629  0.17286999     0.07700
Br218      Br  0.32875266  0.06581897  0.16956717    -0.02900
C219        C  0.43808382  0.30138439  0.20084794    -0.09600
C220        C  0.41833763  0.32236702  0.21321189     0.06600
C221        C  0.38160478  0.30613644  0.23567073    -0.03300
C222        C  0.36368166  0.26777362  0.24361733    -0.07800
C223        C  0.38157841  0.24486721  0.22941819     0.05700
C224        C  0.42005285  0.26276194  0.20853324    -0.02800
Br225      Br  0.44799449  0.23506993  0.18702343    -0.02500
H226        H  0.46678928  0.31417428  0.18392068     0.09600
H227        H  0.33498488  0.25530771  0.26050908     0.07700
Br228      Br  0.35541023  0.33558974  0.25702218    -0.02900
C229        C  0.18138532  0.10375471  0.23965661    -0.09600
C230        C  0.16246152  0.06194563  0.22068495     0.06600
C231        C  0.18356422  0.04241352  0.21099754    -0.03300
C232        C  0.22434975  0.06606523  0.21859521    -0.07800
C233        C  0.24461792  0.10920202  0.23553571     0.05700
C234        C  0.22190430  0.12741515  0.24722861    -0.02800
Br235      Br  0.24376955  0.18444472  0.27323519    -0.02500
H236        H  0.16504118  0.11878667  0.24754927     0.09600
H237        H  0.24110632  0.05140450  0.20937526     0.07700
Br238      Br  0.16056853  0.48546742  0.18510173    -0.02900
C239        C  0.34343910  0.06772365  0.45411833    -0.09600
C240        C  0.35843325  0.10563957  0.47835396     0.06600
C241        C  0.41211755  0.14257683  0.99731767    -0.03300
C242        C  0.42960005  0.11970447  0.98832105    -0.07800
C243        C  0.39202737  0.05880401  0.46330509     0.05700
C244        C  0.36001374  0.04448491  0.44631836    -0.02800
Br245      Br  0.33663649  0.99304597  0.41264180    -0.02500
H246        H  0.31931526  0.05657535  0.44046083     0.09600
H247        H  0.45681399  0.13277575  0.99908600     0.07700
Br248      Br  0.43600963  0.19455390  0.03036397    -0.02900
C249        C  0.38417266  0.30152447  0.48544358    -0.09600
C250        C  0.42419112  0.31791434  0.46758961     0.06600
C251        C  0.44340034  0.29715268  0.46183032    -0.03500
C252        C  0.42025902  0.25786357  0.47076348    -0.07800
C253        C  0.37847761  0.23948587  0.48597142     0.05700
C254        C  0.37246143  0.27995845  0.00027852    -0.02800
Br255      Br  0.31691345  0.26029112  0.02317888    -0.02500
H256        H  0.37839939  0.33241353  0.99382075     0.09600
H257        H  0.43414360  0.24055887  0.46398150     0.07700
Br258      Br  0.49911958  0.31862215  0.43921526    -0.02900
C259        C  0.18273204  0.06476319  0.98108308    -0.09600
C260        C  0.15758296  0.06607184  0.46529114     0.06600
C261        C  0.18885509  0.11007905  0.46593792    -0.03300
C262        C  0.22865592  0.12898581  0.47253748    -0.07800
C263        C  0.23894927  0.10606225  0.47961382     0.05700
C264        C  0.22167254  0.08503140  0.99093168    -0.02800
Br265      Br  0.22380890  0.06381897  0.02186671    -0.02500
H266        H  0.15529328  0.03777744  0.99112560     0.09600
H267        H  0.25198314  0.16226719  0.47154437     0.07700
Br268      Br  0.18094827  0.14829910  0.45930700    -0.02900
C269        C  0.34112858  0.12971130  0.48370164     0.79800
N270        N  0.36705227  0.17264097  0.48575336    -0.78500
C271        C  0.35110811  0.19385712  0.48749241     0.82200
N272        N  0.30968679  0.17145853  0.48608425    -0.78500
C273        C  0.28339551  0.12880858  0.48386882     0.82300
N274        N  0.29952227  0.10792983  0.48224953    -0.80200
C275        C  0.35875714  0.14987440  0.73625988     0.79800
N276        N  0.38138055  0.19251021  0.73892200    -0.78500
C277        C  0.36251452  0.21084354  0.74076047     0.82200
N278        N  0.32035708  0.18583300  0.74039361    -0.78500
C279        C  0.29707183  0.14316999  0.73846983     0.82300
N280        N  0.31670757  0.12520036  0.73567704    -0.80200
C281        C  0.14816807  0.33326833  0.84621370     0.79800
N282        N  0.18898038  0.35449353  0.84984678    -0.78500
C283        C  0.20312372  0.33331574  0.85180990     0.82200
N284        N  0.17635360  0.29068679  0.84980326    -0.78500
C285        C  0.13549077  0.26918490  0.84671105     0.82300
N286        N  0.12129624  0.29065898  0.84536624    -0.80200
C287        C  0.15383731  0.33758890  0.59931002     0.79800
N288        N  0.13323152  0.29544535  0.59781932    -0.78500
C289        C  0.15462675  0.27925232  0.59496352     0.82200
N290        N  0.19691328  0.30621925  0.59425633    -0.78500
C291        C  0.21798438  0.34837099  0.59557351     0.82300
N292        N  0.19622240  0.36388775  0.59801061    -0.80200
O293        O  0.06027941  0.42485040  0.85582032    -0.75700
O294        O  0.06615315  0.43484988  0.90878057    -0.54600
C295        C  0.07242958  0.42192880  0.87757319     0.78000
O296        O  0.07979055  0.11234067  0.88898832    -0.60300
O297        O  0.01378379  0.07886036  0.87782303    -0.53300
C298        C  0.05279996  0.10994668  0.87802199     0.70000
O299        O  0.13264683  0.07986424  0.93867364    -0.74900
O300        O  0.10410861  0.51759888  0.95573248    -0.55400
C301        C  0.13702488  0.05841528  0.95005658     0.76000
O302        O  0.01347194  0.46984429  0.81263714    -0.60000
O303        O  0.47937162  0.99943522  0.83085927    -0.53100
C304        C  0.49895152  0.48729577  0.80843449     0.72600
Zr305      Zr  0.02480732  0.45470965  0.85554089     2.54700
O306        O  0.08698871  0.47831010  0.81493222    -0.80600
O307        O  0.49030754  0.38625992  0.81952803    -0.94000
Zr308      Zr  0.08045354  0.07010407  0.91542811     2.64700
O309        O  0.14274271  0.09415330  0.87500072    -0.99000
O310        O  0.11028577  0.14102173  0.95134394    -0.81000
O311        O  0.06804244  0.50165529  0.89831134    -0.84400
O312        O  0.03941776  0.02300699  0.87185049    -2.19100
O313        O  0.37363083  0.40178925  0.89531739    -0.67800
O314        O  0.39969320  0.46107263  0.87873638    -0.52300
C315        C  0.36995558  0.42315999  0.88308692     0.71000
O316        O  0.47484893  0.99488084  0.52129141    -0.60700
O317        O  0.02324459  0.47871905  0.00301595    -0.52700
C318        C  0.49383590  0.47967381  0.52468402     0.72800
O319        O  0.44508192  0.05577030  0.97642141    -0.72100
O320        O  0.43913250  0.04473382  0.92330492    -0.50700
C321        C  0.43363220  0.05892587  0.95431277     0.74200
O322        O  0.42668422  0.36965198  0.94643654    -0.67400
O323        O  0.49178737  0.40175100  0.95841413    -0.54600
C324        C  0.45260958  0.37124152  0.95822529     0.72600
Zr325      Zr  0.42562926  0.40886249  0.91687922     2.77500
O326        O  0.35784051  0.36947122  0.94942875    -0.98100
O327        O  0.40496704  0.34387211  0.87430051    -0.79000
Zr328      Zr  0.47754053  0.02333054  0.97795138     2.70100
O329        O  0.38919292  0.46531796  0.51276934    -0.80200
O330        O  0.99137074  0.07266422  0.51777159    -0.99300
Zr331      Zr  0.03200897  0.46887245  0.94413080     2.21500
Zr332      Zr  0.47150627  0.00878539  0.88943732     2.11100
O333        O  0.43313991  0.47481240  0.93609279    -2.48000
O334        O  0.46425842  0.45465597  0.96207270    -0.80000
O335        O  0.46089834  0.44237982  0.87166774    -0.72200
O336        O  0.04654218  0.03888481  0.96187536    -2.33200
O337        O  0.49263478  0.42214562  0.89863466    -2.29400
O338        O  0.01455305  0.05941137  0.93543890    -0.74000
H339        H  0.05280994  0.03662657  0.85349046     0.78000
H340        H  0.06357476  0.05639713  0.97963067     0.79100
H341        H  0.40595958  0.46992558  0.94253051     0.81300
H342        H  0.48984262  0.39554371  0.89249638     0.79000
H343        H  0.08610336  0.14279990  0.96127585     0.42000
H344        H  0.00832161  0.09379236  0.50377077     0.41000
H345        H  0.39580848  0.47809063  0.53566301     0.40600
H346        H  0.34985454  0.38967249  0.95977719     0.38600
H347        H  0.39220862  0.32143763  0.88630476     0.41700
H348        H  0.51120491  0.38621107  0.80057581     0.36500
H349        H  0.07913066  0.45304796  0.79646193     0.42600
H350        H  0.13198254  0.08052242  0.85352229     0.39000
H351        H  0.33790845  0.34733613  0.93322777     0.43900
H352        H  0.95797289  0.38017997  0.82006982     0.42700
H353        H  0.15581235  0.12487150  0.87786910     0.42800
H354        H  0.46207475  0.06657499  0.53445630     0.43200
O355        O  0.06426995  0.42715318  0.60786158    -0.75700
O356        O  0.06072301  0.42977509  0.66132923    -0.54600
C357        C  0.07086437  0.41962121  0.63035198     0.78000
O358        O  0.09039449  0.11738358  0.64318905    -0.60300
O359        O  0.02840256  0.08728749  0.62659516    -0.53300
C360        C  0.06705378  0.11788422  0.62998542     0.70000
O361        O  0.13262013  0.07152197  0.69040500    -0.74900
O362        O  0.10175032  0.51339734  0.70952200    -0.55400
C363        C  0.13257398  0.04783822  0.70295630     0.76000
O364        O  0.01277980  0.46606120  0.56214412    -0.60000
O365        O  0.48477898  0.00373260  0.58121580    -0.53100
C366        C  0.49707617  0.48225436  0.55771475     0.72600
Zr367      Zr  0.02975176  0.45716595  0.60555504     2.54700
O368        O  0.08998081  0.48202378  0.56327166    -0.80600
O369        O  0.49390107  0.38465446  0.56887887    -0.94000
Zr370      Zr  0.08550660  0.06879959  0.66647689     2.64700
O371        O  0.14772489  0.08915168  0.62599564    -0.99000
O372        O  0.12308561  0.13874107  0.70308075    -0.81000
O373        O  0.07218985  0.50110213  0.64893914    -0.84400
O374        O  0.04628837  0.02594304  0.62153224    -2.19100
O375        O  0.38158434  0.41247839  0.63867340    -0.67800
O376        O  0.41191892  0.47686507  0.62784128    -0.52300
C377        C  0.38167030  0.43762232  0.62778664     0.71000
O378        O  0.48717181  0.00879863  0.77144645    -0.60700
O379        O  0.01903630  0.47639358  0.75354861    -0.52700
C380        C  0.50169762  0.49073124  0.77549601     0.72800
O381        O  0.45528549  0.06697188  0.72619972    -0.72100
O382        O  0.45612476  0.06148271  0.67274208    -0.50700
C383        C  0.44774955  0.07358505  0.70367843     0.74200
O384        O  0.41998551  0.37174036  0.69653093    -0.67400
O385        O  0.48418143  0.39933201  0.70767899    -0.54600
C386        C  0.44448159  0.37098567  0.70805436     0.72600
Zr387      Zr  0.42564819  0.41622457  0.66778846     2.77500
O388        O  0.36216431  0.39777492  0.70656124    -0.98100
O389        O  0.38871545  0.34378396  0.63446180    -0.79000
Zr390      Zr  0.48619901  0.03323351  0.72879567     2.70100
O391        O  0.42062558  0.51267078  0.76919706    -0.80200
O392        O  0.02654012  0.09696015  0.76513297    -0.99300
Zr393      Zr  0.03124488  0.46886337  0.69481087     2.21500
Zr394      Zr  0.48324152  0.02039321  0.63986301     2.11100
O395        O  0.44106796  0.48565147  0.68575095    -2.48000
O396        O  0.46600910  0.45990154  0.71203561    -0.80000
O397        O  0.46514766  0.44856404  0.62210022    -0.72200
O398        O  0.04647560  0.03603706  0.71219222    -2.33200
O399        O  0.48944906  0.42183994  0.64858287    -2.29400
O400        O  0.02192215  0.06332816  0.68590867    -0.74000
H401        H  0.06093610  0.03978928  0.60322471     0.78000
H402        H  0.06268812  0.05173501  0.73038343     0.79100
H403        H  0.41527281  0.48359542  0.69182561     0.81300
H404        H  0.48397334  0.39398995  0.64297035     0.79000
H405        H  0.11395488  0.13278354  0.72524641     0.42000
H406        H  0.03789862  0.11804976  0.75219241     0.41000
H407        H  0.39761976  0.48493184  0.75800188     0.40600
H408        H  0.35398662  0.41503152  0.70490143     0.38600
H409        H  0.40640415  0.34588659  0.61289937     0.41700
H410        H  0.46702807  0.37814702  0.56693604     0.36500
H411        H  0.11113231  0.51181800  0.57354100     0.42600
H412        H  0.14097227  0.09089069  0.60728046     0.39000
H413        H  0.34046910  0.36807905  0.69654281     0.43900
H414        H  0.97880697  0.36578047  0.58672791     0.42700
H415        H  0.16911757  0.11916305  0.63572743     0.42800
H416        H  0.51752461  0.10765367  0.78082745     0.43200
C417        C  0.13001085  0.17760911  0.60508901    -0.09600
C418        C  0.08717543  0.15620203  0.61723166     0.06600
C419        C  0.06559314  0.17251525  0.61725031    -0.03300
C420        C  0.08781337  0.21131491  0.60799057    -0.07800
C421        C  0.13146689  0.23452017  0.59819207     0.05700
C422        C  0.15201781  0.21572121  0.59501972    -0.02800
Br423      Br  0.20951002  0.23862018  0.57645651    -0.02500
H424        H  0.14671589  0.16452331  0.60337357     0.09600
H425        H  0.07082238  0.22411761  0.60984886     0.07700
Br426      Br  0.00667130  0.14568682  0.63193081    -0.02900
C427        C  0.28767332  0.36127171  0.58203138    -0.09600
C428        C  0.26329405  0.37710636  0.59866480     0.06600
C429        C  0.28147309  0.41715868  0.62126538    -0.03300
C430        C  0.32166475  0.43816913  0.62887821    -0.07800
C431        C  0.34385448  0.41979427  0.61459661     0.05700
C432        C  0.32768169  0.38236103  0.58982275    -0.02800
Br433      Br  0.35943119  0.35917333  0.56634537    -0.02500
H434        H  0.27489473  0.33143146  0.56383718     0.09600
H435        H  0.33444900  0.46749587  0.64763448     0.07700
Br436      Br  0.25200000  0.44277579  0.64576157    -0.02900
C437        C  0.14423463  0.38542378  0.58796787    -0.09600
C438        C  0.13042711  0.35586748  0.60576768     0.06600
C439        C  0.09680280  0.34715941  0.63126843    -0.03300
C440        C  0.07723203  0.36741962  0.63807832    -0.07800
C441        C  0.09098086  0.39708898  0.62032811     0.05700
C442        C  0.12497026  0.40612436  0.59502556    -0.02800
Br443      Br  0.14931142  0.44915147  0.57137128    -0.02500
H444        H  0.17077307  0.39312440  0.56890274     0.09600
H445        H  0.05166495  0.36065871  0.65795200     0.07700
Br446      Br  0.07924697  0.31184967  0.66008180    -0.02900
C447        C  0.05256439  0.17095982  0.88133437    -0.09600
C448        C  0.06802357  0.14608347  0.86518688     0.06600
C449        C  0.10038503  0.15829638  0.83883159    -0.03300
C450        C  0.11978115  0.19730935  0.83121718    -0.07800
C451        C  0.10685668  0.22418965  0.84921953     0.05700
C452        C  0.07152703  0.20980911  0.87344106    -0.02800
Br453      Br  0.05042018  0.24338398  0.89895942    -0.02500
H454        H  0.02721384  0.16131816  0.90137901     0.09600
H455        H  0.14634142  0.20761369  0.81213019     0.07700
Br456      Br  0.11922735  0.12287861  0.81287670    -0.02900
C457        C  0.27969673  0.39045916  0.84475523    -0.09600
C458        C  0.24568166  0.35701890  0.86006348     0.06600
C459        C  0.25273277  0.34738226  0.88384385    -0.03300
C460        C  0.29325701  0.36983178  0.89086222    -0.07800
C461        C  0.32780846  0.40223647  0.87476891     0.05700
C462        C  0.32059808  0.41304244  0.85177145    -0.02800
Br463      Br  0.36460780  0.45681218  0.82815797    -0.02500
H464        H  0.27452522  0.39852949  0.82678956     0.09600
H465        H  0.29755755  0.36193300  0.90948447     0.07700
Br466      Br  0.20850188  0.30590321  0.90945828    -0.02900
C467        C  0.15006641  0.39873354  0.87009572    -0.09600
C468        C  0.13180538  0.35775157  0.84946050     0.06600
C469        C  0.09655399  0.34026563  0.83491795    -0.03300
C470        C  0.07831235  0.36231842  0.84341053    -0.07800
C471        C  0.09490624  0.40179753  0.86603946     0.05700
C472        C  0.13203589  0.42073290  0.87835444    -0.02800
Br473      Br  0.16013281  0.47702035  0.90589476    -0.02500
H474        H  0.17768922  0.41326102  0.88096485     0.09600
H475        H  0.05040791  0.34803558  0.83303362     0.07700
Br476      Br  0.07292970  0.28743489  0.80260674    -0.02900
C477        C  0.40609933  0.14145742  0.75073712    -0.09600
C478        C  0.38074738  0.12995927  0.72865397     0.06600
C479        C  0.37864768  0.10133857  0.69844666    -0.03300
C480        C  0.40113556  0.08408068  0.69099020    -0.07800
C481        C  0.42590745  0.09448011  0.71325531     0.05700
C482        C  0.42830679  0.12365786  0.74352322    -0.02800
Br483      Br  0.46224725  0.14194016  0.77549904    -0.02500
H484        H  0.40843944  0.16421281  0.77375021     0.09600
H485        H  0.39875899  0.06192064  0.66758801     0.07700
Br486      Br  0.34730137  0.08631700  0.66564250    -0.02900
C487        C  0.44779444  0.31569434  0.71378402    -0.09600
C488        C  0.42604478  0.33406807  0.72159640     0.06600
C489        C  0.38664901  0.31572254  0.74091581    -0.03300
C490        C  0.36764123  0.27682934  0.74871608    -0.07800
C491        C  0.38760224  0.25596537  0.73811462     0.05700
C492        C  0.42928089  0.27717961  0.72190237    -0.02800
Br493      Br  0.46245291  0.25497988  0.70720858    -0.02500
H494        H  0.47871930  0.33029666  0.69975166     0.09600
H495        H  0.33659494  0.26234435  0.76247676     0.07700
Br496      Br  0.35837055  0.34328681  0.75829881    -0.02900
C497        C  0.18821752  0.10847907  0.73661892    -0.09600
C498        C  0.17142596  0.06782022  0.71581171     0.06600
C499        C  0.19392998  0.04972717  0.70580817    -0.03300
C500        C  0.23411306  0.07390885  0.71489625    -0.07800
C501        C  0.25205283  0.11586159  0.73426525     0.05700
C502        C  0.22755302  0.13206911  0.74656195    -0.02800
Br503      Br  0.24477830  0.18528303  0.77791726    -0.02500
H504        H  0.17067762  0.12226005  0.74491597     0.09600
H505        H  0.25207022  0.06053352  0.70543061     0.07700
Br506      Br  0.17235601  0.49732332  0.68226114    -0.02900
C507        C  0.35972656  0.08639140  0.96060619    -0.09600
C508        C  0.37719639  0.12622306  0.98292421     0.06600
C509        C  0.38973397  0.11961676  0.49595390    -0.03300
C510        C  0.40583647  0.09578298  0.48863067    -0.07800
C511        C  0.41282260  0.08068049  0.96512417     0.05700
C512        C  0.37697433  0.06358364  0.95180770    -0.02800
Br513      Br  0.34865877  0.00814326  0.92293817    -0.02500
H514        H  0.33262136  0.07291028  0.94950249     0.09600
H515        H  0.43036624  0.10708585  0.50189339     0.07700
Br516      Br  0.41127438  0.17044721  0.53026017    -0.02900
C517        C  0.39415836  0.31758849  0.98980293    -0.09600
C518        C  0.43483627  0.33535308  0.97303003     0.06600
C519        C  0.45539587  0.31640664  0.96902860    -0.03500
C520        C  0.43336571  0.27794269  0.97896791    -0.07800
C521        C  0.39108390  0.25807564  0.99310347     0.05700
C522        C  0.36165616  0.26337979  0.49525700    -0.02800
Br523      Br  0.30808667  0.24638345  0.52118869    -0.02500
H524        H  0.36973866  0.31812002  0.49112747     0.09600
H525        H  0.44853464  0.26215049  0.97349782     0.07700
Br526      Br  0.51145300  0.33854061  0.94686413    -0.02900
C527        C  0.16674085  0.04373615  0.47473052    -0.09600
C528        C  0.17889895  0.07955339  0.95906944     0.06600
C529        C  0.21557560  0.11467874  0.94620895    -0.03300
C530        C  0.25381687  0.13484851  0.95641523    -0.07800
C531        C  0.25741066  0.12103263  0.97899878     0.05700
C532        C  0.20684474  0.06304730  0.48172964    -0.02800
Br533      Br  0.21433582  0.02854269  0.49454583    -0.02500
H534        H  0.14281597  0.01063460  0.47608646     0.09600
H535        H  0.28139894  0.16164070  0.94618659     0.07700
Br536      Br  0.21800623  0.13714107  0.91364454    -0.02900
C537        C  0.35623692  0.64761928  0.98971551     0.79800
N538        N  0.38105330  0.69023836  0.99062177    -0.78500
C539        C  0.36425670  0.70944336  0.98950227     0.82200
N540        N  0.32321538  0.68527324  0.98568248    -0.78500
C541        C  0.29814854  0.64309730  0.98514349     0.82300
N542        N  0.31477188  0.62431792  0.98698087    -0.80200
C543        C  0.35083771  0.64191343  0.23645487     0.79800
N544        N  0.37397121  0.68356088  0.23507168    -0.78500
C545        C  0.35492964  0.70122421  0.23554020     0.82200
N546        N  0.31250531  0.67678445  0.23785628    -0.78500
C547        C  0.28899626  0.63541140  0.23993225     0.82300
N548        N  0.30842758  0.61783611  0.23855492    -0.80200
C549        C  0.13319292  0.81736248  0.34827199     0.79800
N550        N  0.17437384  0.83830245  0.35056941    -0.78500
C551        C  0.18857607  0.81697133  0.35205594     0.82200
N552        N  0.16149820  0.77462578  0.35116517    -0.78500
C553        C  0.12031009  0.75353103  0.34946134     0.82300
N554        N  0.10604203  0.77504528  0.34837006    -0.80200
C555        C  0.14963303  0.83514162  0.09922630     0.79800
N556        N  0.12968276  0.79333442  0.09855514    -0.78500
C557        C  0.15163517  0.77831555  0.09722822     0.82200
N558        N  0.19382233  0.80605602  0.09697284    -0.78500
C559        C  0.21413041  0.84778845  0.09741999     0.82300
N560        N  0.19189678  0.86219446  0.09855543    -0.80200
O561        O  0.04872408  0.91078044  0.35455313    -0.75700
O562        O  0.05388335  0.92102003  0.40778548    -0.54600
C563        C  0.06079378  0.90834113  0.37668132     0.78000
O564        O  0.06133496  0.59660862  0.39274071    -0.60300
O565        O  0.99641607  0.56167614  0.37858770    -0.53300
C566        C  0.03496195  0.59356787  0.38042616     0.70000
O567        O  0.11442425  0.56537484  0.44348987    -0.74900
O568        O  0.08797368  0.00396251  0.45667073    -0.55400
C569        C  0.11809196  0.54509725  0.45691378     0.76000
O570        O  0.00072659  0.95384593  0.30973832    -0.60000
O571        O  0.46581609  0.48433833  0.33143365    -0.53100
C572        C  0.48671041  0.97296385  0.30575951     0.72600
Zr573      Zr  0.01136387  0.93805979  0.35291703     2.54700
O574        O  0.07256513  0.96077295  0.31143770    -0.80600
O575        O  0.48269123  0.87478082  0.31330883    -0.94000
Zr576      Zr  0.06237551  0.55512641  0.41956697     2.64700
O577        O  0.13071234  0.59219800  0.38721144    -0.99000
O578        O  0.07976148  0.61947159  0.46220078    -0.81000
O579        O  0.05307574  0.98570541  0.39668228    -0.84400
O580        O  0.02561425  0.50972387  0.37356085    -2.19100
O581        O  0.36105264  0.88233112  0.38953950    -0.67800
O582        O  0.38563585  0.94239517  0.37479351    -0.52300
C583        C  0.35674060  0.90382698  0.37806111     0.71000
O584        O  0.48504938  0.50746700  0.02399565    -0.60700
O585        O  0.01056979  0.96363309  0.50074180    -0.52700
C586        C  0.50594526  0.99290837  0.02375495     0.72800
O587        O  0.42333640  0.53353957  0.47701883    -0.72100
O588        O  0.42015248  0.52509098  0.42369711    -0.50700
C589        C  0.41294941  0.53762576  0.45474221     0.74200
O590        O  0.41421132  0.85088919  0.44066534    -0.67400
O591        O  0.47927898  0.88496632  0.45389865    -0.54600
C592        C  0.44045856  0.85334662  0.45273843     0.72600
Zr593      Zr  0.41313874  0.89132711  0.41247694     2.77500
O594        O  0.34613396  0.85382378  0.44632213    -0.98100
O595        O  0.39267134  0.82545995  0.37088931    -0.79000
Zr596      Zr  0.45659210  0.50206481  0.47911245     2.70100
O597        O  0.41442734  0.99897856  0.01757981    -0.80200
O598        O  0.01380179  0.59548778  0.01775298    -0.99300
Zr599      Zr  0.01706799  0.95217331  0.44210179     2.21500
Zr600      Zr  0.45545158  0.49221633  0.39012571     2.11100
O601        O  0.41857322  0.95627053  0.43232315    -2.48000
O602        O  0.45034441  0.93701747  0.45848775    -0.80000
O603        O  0.44843371  0.92626373  0.36800306    -0.72200
O604        O  0.02605909  0.51971673  0.46338678    -2.33200
O605        O  0.48105838  0.90690992  0.39478690    -2.29400
O606        O  0.99426304  0.53948416  0.43663763    -0.74000
H607        H  0.03991797  0.52486045  0.35605317     0.78000
H608        H  0.04174126  0.53714488  0.48193980     0.79100
H609        H  0.39099221  0.95043683  0.43837925     0.81300
H610        H  0.47918656  0.88076926  0.38832524     0.79000
H611        H  0.10336071  0.64324048  0.45142182     0.42000
H612        H  0.01645872  0.61438947  0.00687758     0.41000
H613        H  0.39993258  0.96771116  0.01305072     0.40600
H614        H  0.33785804  0.87381720  0.45530361     0.38600
H615        H  0.37751446  0.80301809  0.38346559     0.41700
H616        H  0.50015643  0.88028158  0.29184359     0.36500
H617        H  0.09638152  0.98492013  0.32390814     0.42600
H618        H  0.12476277  0.57979955  0.36415551     0.39000
H619        H  0.32601837  0.83030006  0.43059261     0.43900
H620        H  0.95798098  0.86851489  0.30503781     0.42700
H621        H  0.13929885  0.62179178  0.39161949     0.42800
H622        H  0.48104159  0.58646137  0.03716877     0.43200
O623        O  0.06202774  0.92587340  0.10611281    -0.75700
O624        O  0.05620343  0.92581269  0.15928490    -0.54600
C625        C  0.06781636  0.91743787  0.12842500     0.78000
O626        O  0.08796271  0.61707523  0.14723870    -0.60300
O627        O  0.02667888  0.58751663  0.12979030    -0.53300
C628        C  0.06516315  0.61795943  0.13373654     0.70000
O629        O  0.12606898  0.56817142  0.19564044    -0.74900
O630        O  0.09241867  0.00474806  0.20979386    -0.55400
C631        C  0.12493239  0.54333727  0.20767940     0.76000
O632        O  0.01912749  0.97232255  0.06110189    -0.60000
O633        O  0.48578686  0.50688913  0.08400382    -0.53100
C634        C  0.50476123  0.99106780  0.05671949     0.72600
Zr635      Zr  0.02666672  0.95509864  0.10449234     2.54700
O636        O  0.08713788  0.97296148  0.06246578    -0.80600
O637        O  0.49417953  0.88796372  0.06455826    -0.94000
Zr638      Zr  0.08119340  0.56742156  0.17060053     2.64700
O639        O  0.14563534  0.59175145  0.13235125    -0.99000
O640        O  0.11447702  0.63660853  0.20887838    -0.81000
O641        O  0.06623288  0.99719169  0.14951931    -0.84400
O642        O  0.04371837  0.52584012  0.12474404    -2.19100
O643        O  0.37750102  0.91264801  0.13768633    -0.67800
O644        O  0.41006980  0.97721858  0.12608196    -0.52300
C645        C  0.37858471  0.93869367  0.12715614     0.71000
O646        O  0.47478193  0.49530773  0.27276305    -0.60700
O647        O  0.00887081  0.96401960  0.25104178    -0.52700
C648        C  0.49059572  0.97794309  0.27317067     0.72800
O649        O  0.44373511  0.55640029  0.23015377    -0.72100
O650        O  0.44846650  0.55513457  0.17681138    -0.50700
C651        C  0.43792644  0.56480599  0.20774003     0.74200
O652        O  0.41327461  0.86372665  0.18992878    -0.67400
O653        O  0.47644206  0.89026803  0.20245749    -0.54600
C654        C  0.43688025  0.86172494  0.20144966     0.72600
Zr655      Zr  0.42166930  0.91070358  0.16197609     2.77500
O656        O  0.35362841  0.88011663  0.19570907    -0.98100
O657        O  0.39316780  0.84367432  0.12100335    -0.79000
Zr658      Zr  0.47286792  0.52021121  0.23122627     2.70100
O659        O  0.40775419  0.99619038  0.26512075    -0.80200
O660        O  0.02012683  0.59230707  0.26912862    -0.99300
Zr661      Zr  0.02313887  0.96096094  0.19305013     2.21500
Zr662      Zr  0.47863647  0.51718501  0.14272950     2.11100
O663        O  0.43570264  0.97952702  0.18274560    -2.48000
O664        O  0.45827164  0.95114607  0.20839988    -0.80000
O665        O  0.46366632  0.94723771  0.11852145    -0.72200
O666        O  0.04067387  0.53256806  0.21509111    -2.33200
O667        O  0.48644631  0.91841857  0.14463161    -2.29400
O668        O  0.01744113  0.56145017  0.18918968    -0.74000
H669        H  0.05940756  0.54065525  0.10699499     0.78000
H670        H  0.05615643  0.54735099  0.23364575     0.79100
H671        H  0.40968526  0.97700523  0.18844981     0.81300
H672        H  0.48143993  0.89067035  0.13780148     0.79000
H673        H  0.11010642  0.63010548  0.22993748     0.42000
H674        H  0.00378455  0.60460851  0.27819736     0.41000
H675        H  0.38581384  0.97354084  0.25055261     0.40600
H676        H  0.34728380  0.90131752  0.20136960     0.38600
H677        H  0.39519113  0.85105248  0.10117733     0.41700
H678        H  0.51380493  0.89211916  0.04391169     0.36500
H679        H  0.11004809  0.00200858  0.07229306     0.42600
H680        H  0.15035138  0.56941417  0.12717813     0.39000
H681        H  0.33350702  0.85556613  0.18033950     0.43900
H682        H  0.96970167  0.88558094  0.05894591     0.42700
H683        H  0.13794402  0.58840789  0.11179770     0.42800
H684        H  0.48816638  0.58672070  0.28856231     0.43200
C685        C  0.12837194  0.67819395  0.10945406    -0.09600
C686        C  0.08545881  0.65646379  0.12128007     0.06600
C687        C  0.06362308  0.67240081  0.12113413    -0.03300
C688        C  0.08542986  0.71061782  0.11115803    -0.07800
C689        C  0.12910118  0.73412438  0.10144679     0.05700
C690        C  0.15020412  0.71623955  0.09930939    -0.02800
Br691      Br  0.20843549  0.74059146  0.08256436    -0.02500
H692        H  0.14530020  0.66552984  0.10819713     0.09600
H693        H  0.06809187  0.72280908  0.11247935     0.07700
Br694      Br  0.00496772  0.64610299  0.13700705    -0.02900
C695        C  0.28539405  0.86474326  0.08139341    -0.09600
C696        C  0.25917510  0.87752207  0.10066488     0.06600
C697        C  0.27550627  0.91548511  0.12549865    -0.03300
C698        C  0.31611514  0.93732009  0.13262084    -0.07800
C699        C  0.34066380  0.92211661  0.11502142     0.05700
C700        C  0.32611135  0.88722245  0.08821297    -0.02800
Br701      Br  0.36129659  0.86945174  0.06099822    -0.02500
H702        H  0.27368346  0.83635552  0.06173661     0.09600
H703        H  0.32747020  0.96450050  0.15322316     0.07700
Br704      Br  0.24277906  0.93644292  0.15311651    -0.02900
C705        C  0.14280258  0.88537013  0.08847211    -0.09600
C706        C  0.12587677  0.85267240  0.10419975     0.06600
C707        C  0.08922128  0.84092858  0.12696898    -0.03300
C708        C  0.07062600  0.86202398  0.13366869    -0.07800
C709        C  0.08777248  0.89497838  0.11831337     0.05700
C710        C  0.12411637  0.90657671  0.09530783    -0.02800
Br711      Br  0.15191003  0.95349690  0.07494321    -0.02500
H712        H  0.17137209  0.89523900  0.07139618     0.09600
H713        H  0.04286732  0.85313162  0.15160494     0.07700
Br714      Br  0.06490546  0.79972580  0.15246772    -0.02900
C715        C  0.03612897  0.65536955  0.38411776    -0.09600
C716        C  0.05076404  0.62983227  0.36766276     0.06600
C717        C  0.08431967  0.64258458  0.34216922    -0.03300
C718        C  0.10413207  0.68165180  0.33457010    -0.07800
C719        C  0.09165184  0.70887865  0.35260239     0.05700
C720        C  0.05672900  0.69514890  0.37720748    -0.02800
Br721      Br  0.03977651  0.73148242  0.40567529    -0.02500
H722        H  0.01076245  0.64588675  0.40416798     0.09600
H723        H  0.13104596  0.69196494  0.31577498     0.07700
Br724      Br  0.10570447  0.60890389  0.31833881    -0.02900
C725        C  0.26563898  0.87017667  0.34053217    -0.09600
C726        C  0.23164063  0.84018346  0.35878600     0.06600
C727        C  0.23918352  0.83263849  0.38362464    -0.03300
C728        C  0.28011237  0.85335665  0.38876798    -0.07800
C729        C  0.31445916  0.88268935  0.37017671     0.05700
C730        C  0.30695779  0.89144591  0.34596698    -0.02800
Br731      Br  0.35133960  0.93017837  0.31854979    -0.02500
H732        H  0.26007003  0.87645494  0.32158547     0.09600
H733        H  0.28496315  0.84722970  0.40824498     0.07700
Br734      Br  0.19507715  0.79736301  0.41349010    -0.02900
C735        C  0.13511655  0.88255373  0.37275285    -0.09600
C736        C  0.11719238  0.84204570  0.35155330     0.06600
C737        C  0.08335297  0.82566062  0.33575755    -0.03300
C738        C  0.06640737  0.84868121  0.34312189    -0.07800
C739        C  0.08293730  0.88802321  0.36586633     0.05700
C740        C  0.11854645  0.90563129  0.37975466    -0.02800
Br741      Br  0.14707680  0.96173259  0.40728013    -0.02500
H742        H  0.16159448  0.89603903  0.38468189     0.09600
H743        H  0.03948164  0.83522784  0.33178329     0.07700
Br744      Br  0.06014907  0.77321272  0.30314170    -0.02900
C745        C  0.40054211  0.63671454  0.25106470    -0.09600
C746        C  0.37183312  0.62135192  0.23040884     0.06600
C747        C  0.36506299  0.58769246  0.20290839    -0.03300
C748        C  0.38659517  0.56971291  0.19663373    -0.07800
C749        C  0.41531444  0.58470192  0.21718969     0.05700
C750        C  0.42217029  0.61851300  0.24480498    -0.02800
Br751      Br  0.46251065  0.64316463  0.27332637    -0.02500
H752        H  0.40636355  0.66313501  0.27194379     0.09600
H753        H  0.38114396  0.54400899  0.17518486     0.07700
Br754      Br  0.32953856  0.56725866  0.17141724    -0.02900
C755        C  0.43783058  0.80280882  0.20300859    -0.09600
C756        C  0.41757327  0.82317965  0.21334438     0.06600
C757        C  0.37886707  0.80539001  0.23369463    -0.03300
C758        C  0.36033650  0.76689294  0.24194828    -0.07800
C759        C  0.37934224  0.74501156  0.23008589     0.05700
C760        C  0.41903904  0.76389274  0.21074796    -0.02800
Br761      Br  0.44778402  0.73689368  0.19098011    -0.02500
H762        H  0.46763041  0.81619900  0.18737024     0.09600
H763        H  0.33034303  0.75357788  0.25728319     0.07700
Br764      Br  0.35032108  0.83262613  0.25171699    -0.02900
C765        C  0.18066770  0.60297605  0.24136642    -0.09600
C766        C  0.16279397  0.56193984  0.22112844     0.06600
C767        C  0.18377104  0.54230760  0.21174354    -0.03300
C768        C  0.22415883  0.56579421  0.22006442    -0.07800
C769        C  0.24355146  0.60841831  0.23809054     0.05700
C770        C  0.22029075  0.62595967  0.25041147    -0.02800
Br771      Br  0.24036772  0.68091549  0.27976546    -0.02500
H772        H  0.16406366  0.61775254  0.24949336     0.09600
H773        H  0.24125103  0.55148537  0.21075144     0.07700
Br774      Br  0.16029635  0.98569062  0.18413351    -0.02900
C775        C  0.34008374  0.56606791  0.45995424    -0.09600
C776        C  0.35841076  0.60630744  0.48164359     0.06600
C777        C  0.41223768  0.64310895  0.99651851    -0.03300
C778        C  0.42949598  0.62013548  0.98788419    -0.07800
C779        C  0.39210967  0.55928824  0.46535015     0.05700
C780        C  0.35679678  0.54275965  0.45152757    -0.02800
Br781      Br  0.32961270  0.48827178  0.42146391    -0.02500
H782        H  0.31333057  0.55314995  0.44864391     0.09600
H783        H  0.45838148  0.63452067  0.99685747     0.07700
Br784      Br  0.44117294  0.69882842  0.02480837    -0.02900
C785        C  0.38535449  0.80295949  0.48799386    -0.09600
C786        C  0.42338816  0.81743087  0.46719545     0.06600
C787        C  0.44193334  0.79547640  0.45926103    -0.03500
C788        C  0.42008724  0.75726163  0.46954257    -0.07800
C789        C  0.38007662  0.74083645  0.48797920     0.05700
C790        C  0.37345110  0.77803291  0.99710730    -0.02800
Br791      Br  0.31978908  0.75942772  0.02343985    -0.02500
H792        H  0.38033930  0.83234830  0.99337131     0.09600
H793        H  0.43315349  0.73897812  0.46114342     0.07700
Br794      Br  0.49433546  0.81335800  0.43141500    -0.02900
C795        C  0.18000406  0.56925248  0.98593685    -0.09600
C796        C  0.15838389  0.56828262  0.46977981     0.06600
C797        C  0.18804163  0.61307882  0.47404084    -0.03300
C798        C  0.22765397  0.63241214  0.48152247    -0.07800
C799        C  0.23910872  0.60878550  0.48586362     0.05700
C800        C  0.21953471  0.59014147  0.99497915    -0.02800
Br801      Br  0.22225446  0.58251084  0.03423393    -0.02500
H802        H  0.15210409  0.54974821  0.00143486     0.09600
H803        H  0.24990473  0.66649708  0.48330113     0.07700
Br804      Br  0.17727709  0.65127986  0.47176865    -0.02900
C805        C  0.34159425  0.63102618  0.48718617     0.79800
N806        N  0.36798311  0.67376328  0.48826297    -0.78500
C807        C  0.35237127  0.69550549  0.49052996     0.82200
N808        N  0.31067800  0.67375044  0.49048416    -0.78500
C809        C  0.28389896  0.63128650  0.48921192     0.82300
N810        N  0.29978845  0.60999481  0.48717344    -0.80200
C811        C  0.35837953  0.65001998  0.73789974     0.79800
N812        N  0.38199426  0.69263814  0.73963489    -0.78500
C813        C  0.36372386  0.71193104  0.74224727     0.82200
N814        N  0.32133723  0.68785832  0.74339027    -0.78500
C815        C  0.29723960  0.64535825  0.74229148     0.82300
N816        N  0.31616960  0.62649790  0.73893775    -0.80200
C817        C  0.14837021  0.83182791  0.84534209     0.79800
N818        N  0.18923381  0.85256630  0.84844915    -0.78500
C819        C  0.20315791  0.83095546  0.84989795     0.82200
N820        N  0.17607703  0.78836469  0.84796002    -0.78500
C821        C  0.13510795  0.76736464  0.84556776     0.82300
N822        N  0.12114159  0.78928163  0.84468651    -0.80200
C823        C  0.15530424  0.83701191  0.59621853     0.79800
N824        N  0.13532723  0.79505755  0.59490922    -0.78500
C825        C  0.15731662  0.77960902  0.59234863     0.82200
N826        N  0.19949151  0.80710549  0.59185234    -0.78500
C827        C  0.21991230  0.84908218  0.59304707     0.82300
N828        N  0.19763730  0.86391467  0.59514648    -0.80200
O829        O  0.06333907  0.92616232  0.85558817    -0.75700
O830        O  0.06893491  0.93620022  0.90859401    -0.54600
C831        C  0.07538294  0.92329139  0.87743977     0.78000
O832        O  0.07743478  0.61136671  0.89048452    -0.60300
O833        O  0.01118074  0.57918767  0.88054332    -0.53300
C834        C  0.05039808  0.60959645  0.88010718     0.70000
O835        O  0.13133815  0.57601660  0.93705961    -0.74900
O836        O  0.10760028  0.02018423  0.95416095    -0.55400
C837        C  0.13451803  0.55462397  0.94968435     0.76000
O838        O  0.01434568  0.96830044  0.81137883    -0.60000
O839        O  0.47949177  0.50055553  0.83253447    -0.53100
C840        C  0.49863935  0.98603305  0.80672213     0.72600
Zr841      Zr  0.02722949  0.95503584  0.85470492     2.54700
O842        O  0.08938078  0.97733030  0.81407867    -0.80600
O843        O  0.48746517  0.88299656  0.81778946    -0.94000
Zr844      Zr  0.07859269  0.56900550  0.91656431     2.64700
O845        O  0.13957770  0.59237853  0.87481922    -0.99000
O846        O  0.11041913  0.63923603  0.95361915    -0.81000
O847        O  0.07060671  0.00302307  0.89731509    -0.84400
O848        O  0.03709679  0.52265622  0.87328956    -2.19100
O849        O  0.37323261  0.90017692  0.89461855    -0.67800
O850        O  0.39923992  0.95948043  0.87809384    -0.52300
C851        C  0.36952801  0.92147398  0.88238810     0.71000
O852        O  0.47451312  0.49375796  0.52228905    -0.60700
O853        O  0.02526930  0.97967691  0.00200751    -0.52700
C854        C  0.49352101  0.98017848  0.52382297     0.72800
O855        O  0.44279174  0.55485257  0.97813740    -0.72100
O856        O  0.43720221  0.54406952  0.92493985    -0.50700
C857        C  0.43152947  0.55801874  0.95594279     0.74200
O858        O  0.42659129  0.86829562  0.94413370    -0.67400
O859        O  0.49196143  0.89991586  0.95527890    -0.54600
C860        C  0.45270677  0.86944544  0.95514793     0.72600
Zr861      Zr  0.42589202  0.90901428  0.91636770     2.77500
O862        O  0.36154383  0.87751988  0.95421169    -0.98100
O863        O  0.40061049  0.84043595  0.87744816    -0.79000
Zr864      Zr  0.47352458  0.52124359  0.98038689     2.70100
O865        O  0.39060591  0.96571795  0.51143544    -0.80200
O866        O  0.98843264  0.57145156  0.51844623    -0.99300
Zr867      Zr  0.03507813  0.97061047  0.94329591     2.21500
Zr868      Zr  0.47115744  0.50985605  0.89127663     2.11100
O869        O  0.43482891  0.97565372  0.93507282    -2.48000
O870        O  0.46627110  0.95570657  0.96039530    -0.80000
O871        O  0.46011633  0.94074696  0.87019128    -0.72200
O872        O  0.04395691  0.53735933  0.96281776    -2.33200
O873        O  0.49199046  0.92039883  0.89668945    -2.29400
O874        O  0.01268386  0.55846344  0.93677004    -0.74000
H875        H  0.05066217  0.53659441  0.85511245     0.78000
H876        H  0.06111252  0.55478396  0.98049860     0.79100
H877        H  0.40787713  0.97127611  0.94194418     0.81300
H878        H  0.48872251  0.89356654  0.89070780     0.79000
H879        H  0.14075926  0.65171759  0.94975242     0.42000
H880        H  0.99886193  0.59217822  0.50545898     0.41000
H881        H  0.38657282  0.93950384  0.51180875     0.40600
H882        H  0.35369299  0.89773030  0.96124843     0.38600
H883        H  0.38876747  0.84064914  0.86129598     0.41700
H884        H  0.50583841  0.88421920  0.79662658     0.36500
H885        H  0.11316582  0.99906720  0.82711507     0.42600
H886        H  0.12814482  0.57987925  0.85374884     0.39000
H887        H  0.34004290  0.85197489  0.94027555     0.43900
H888        H  0.97292857  0.86410010  0.83561896     0.42700
H889        H  0.15376432  0.62346476  0.87841516     0.42800
H890        H  0.46103775  0.57000072  0.53181256     0.43200
O891        O  0.06286112  0.92447166  0.60662161    -0.75700
O892        O  0.05940151  0.92666544  0.65990707    -0.54600
C893        C  0.06961121  0.91675839  0.62891702     0.78000
O894        O  0.09476622  0.61909816  0.64169928    -0.60300
O895        O  0.03257183  0.58939168  0.62564420    -0.53300
C896        C  0.07145077  0.61953678  0.62844110     0.70000
O897        O  0.13398717  0.57535901  0.69377234    -0.74900
O898        O  0.10116335  0.00975592  0.70612418    -0.55400
C899        C  0.13319284  0.55170866  0.70698288     0.76000
O900        O  0.01300540  0.96477918  0.56063329    -0.60000
O901        O  0.48450223  0.50256162  0.58191558    -0.53100
C902        C  0.49646155  0.98257864  0.55701147     0.72600
Zr903      Zr  0.02955726  0.95588379  0.60429064     2.54700
O904        O  0.09350185  0.98540463  0.56580351    -0.80600
O905        O  0.48640850  0.88179583  0.57052122    -0.94000
Zr906      Zr  0.08833747  0.57090441  0.66651057     2.64700
O907        O  0.14847170  0.58535927  0.62460168    -0.99000
O908        O  0.12865887  0.64300730  0.69953047    -0.81000
O909        O  0.07081302  0.99955778  0.64823349    -0.84400
O910        O  0.04812339  0.52775948  0.62215984    -2.19100
O911        O  0.38173993  0.91440446  0.63966211    -0.67800
O912        O  0.41254624  0.97837206  0.62777606    -0.52300
C913        C  0.38208664  0.93931842  0.62825044     0.71000
O914        O  0.48612263  0.50850573  0.77281143    -0.60700
O915        O  0.01848118  0.97359358  0.75196311    -0.52700
C916        C  0.50233517  0.99059259  0.77407429     0.72800
O917        O  0.45221029  0.56370715  0.72643342    -0.72100
O918        O  0.45183116  0.55722122  0.67302586    -0.50700
C919        C  0.44380561  0.56959124  0.70400124     0.74200
O920        O  0.42042150  0.87277215  0.69675073    -0.67400
O921        O  0.48485418  0.89985125  0.70696022    -0.54600
C922        C  0.44508854  0.87153369  0.70766418     0.72600
Zr923      Zr  0.42540429  0.91841100  0.66938443     2.77500
O924        O  0.36528034  0.90639353  0.71073905    -0.98100
O925        O  0.38430282  0.84505499  0.63844618    -0.79000
Zr926      Zr  0.48282499  0.52989965  0.72936535     2.70100
O927        O  0.43003659  0.02442725  0.77352060    -0.80200
O928        O  0.02998827  0.60180371  0.76633239    -0.99300
Zr929      Zr  0.02980651  0.96565982  0.69320025     2.21500
Zr930      Zr  0.48237947  0.51908622  0.64051478     2.11100
O931        O  0.44269617  0.98864944  0.68618036    -2.48000
O932        O  0.46736802  0.96246668  0.71254300    -0.80000
O933        O  0.46400695  0.94915363  0.62283010    -0.72200
O934        O  0.04919191  0.53968423  0.71300357    -2.33200
O935        O  0.48803600  0.92192539  0.64893765    -2.29400
O936        O  0.02547436  0.56697979  0.68634915    -0.74000
H937        H  0.06267782  0.54103337  0.60354627     0.78000
H938        H  0.06532773  0.55555815  0.73125007     0.79100
H939        H  0.41723470  0.98726282  0.69263472     0.81300
H940        H  0.48194531  0.89384913  0.64369129     0.79000
H941        H  0.11096866  0.64189263  0.72104689     0.42000
H942        H  0.03201937  0.62261841  0.75831407     0.41000
H943        H  0.40396648  0.00243534  0.76311380     0.40600
H944        H  0.35169227  0.91476858  0.70338199     0.38600
H945        H  0.39912688  0.84596805  0.61579323     0.41700
H946        H  0.45965084  0.87672839  0.57024740     0.36500
H947        H  0.11644495  0.00332793  0.57964681     0.42600
H948        H  0.14291460  0.58929380  0.60643618     0.39000
H949        H  0.34548319  0.87493730  0.70740839     0.43900
H950        H  0.98437353  0.86529088  0.58136663     0.42700
H951        H  0.17199271  0.61425070  0.63396796     0.42800
H952        H  0.50640730  0.59904695  0.78553442     0.43200
C953        C  0.13394798  0.67839881  0.60230809    -0.09600
C954        C  0.09142388  0.65747016  0.61538977     0.06600
C955        C  0.06981293  0.67426677  0.61666780    -0.03300
C956        C  0.09155208  0.71271835  0.60720239    -0.07800
C957        C  0.13482556  0.73533108  0.59612711     0.05700
C958        C  0.15561005  0.71651891  0.59230048    -0.02800
Br959      Br  0.21296814  0.73965569  0.57322542    -0.02500
H960        H  0.15064672  0.66508066  0.59999876     0.09600
H961        H  0.07450054  0.72579596  0.60999995     0.07700
Br962      Br  0.01158929  0.64887455  0.63367073    -0.02900
C963        C  0.28991366  0.86329268  0.58061727    -0.09600
C964        C  0.26487590  0.87836786  0.59697197     0.06600
C965        C  0.28174892  0.91763185  0.62050268    -0.03300
C966        C  0.32155620  0.93883629  0.62897494    -0.07800
C967        C  0.34448544  0.92127414  0.61470724     0.05700
C968        C  0.32938692  0.88442200  0.58939371    -0.02800
Br969      Br  0.36176725  0.86188359  0.56673027    -0.02500
H970        H  0.27793884  0.83385232  0.56197929     0.09600
H971        H  0.33344802  0.96761100  0.64829329     0.07700
Br972      Br  0.25076606  0.94158406  0.64508547    -0.02900
C973        C  0.14254697  0.88215307  0.58444503    -0.09600
C974        C  0.13116901  0.85460115  0.60318887     0.06600
C975        C  0.09962748  0.84762027  0.63025518    -0.03300
C976        C  0.07921416  0.86713880  0.63745710    -0.07800
C977        C  0.09033605  0.89468081  0.61863737     0.05700
C978        C  0.12272670  0.90240808  0.59200469    -0.02800
Br979      Br  0.14470733  0.94348243  0.56714088    -0.02500
H980        H  0.16778429  0.88880757  0.56429954     0.09600
H981        H  0.05519368  0.86157849  0.65847792     0.07700
Br982      Br  0.08658267  0.81604994  0.66054362    -0.02900
C983        C  0.05187787  0.67143931  0.88284932    -0.09600
C984        C  0.06594331  0.64536403  0.86670793     0.06600
C985        C  0.09737447  0.65593837  0.83965856    -0.03300
C986        C  0.11758791  0.69475937  0.83136265    -0.07800
C987        C  0.10606773  0.72284982  0.84925561     0.05700
C988        C  0.07173484  0.71017513  0.87442627    -0.02800
Br989      Br  0.05412673  0.74648417  0.90121966    -0.02500
H990        H  0.02723467  0.66300630  0.90346015     0.09600
H991        H  0.14352270  0.70383969  0.81172056     0.07700
Br992      Br  0.11323377  0.61804857  0.81347295    -0.02900
C993        C  0.27965869  0.88822017  0.84330133    -0.09600
C994        C  0.24561831  0.85433764  0.85817108     0.06600
C995        C  0.25253058  0.84412972  0.88165183    -0.03300
C996        C  0.29288346  0.86710839  0.88927217    -0.07800
C997        C  0.32745004  0.90016548  0.87373484     0.05700
C998        C  0.32046608  0.91079331  0.85048279    -0.02800
Br999      Br  0.36488277  0.95350251  0.82606016    -0.02500
H1000       H  0.27463108  0.89643910  0.82535010     0.09600
H1001       H  0.29707677  0.85889483  0.90774602     0.07700
Br1002     Br  0.20839958  0.80079187  0.90583089    -0.02900
C1003       C  0.15055178  0.89722024  0.87088018    -0.09600
C1004       C  0.13253385  0.85695422  0.84922829     0.06600
C1005       C  0.09817660  0.84084019  0.83420703    -0.03300
C1006       C  0.08119022  0.86402342  0.84249094    -0.07800
C1007       C  0.09742621  0.90273268  0.86603669     0.05700
C1008       C  0.13317415  0.91990236  0.87956121    -0.02800
Br1009     Br  0.15989585  0.97419121  0.90992401    -0.02500
H1010       H  0.17724701  0.91043326  0.88240027     0.09600
H1011       H  0.05412191  0.85090093  0.83150104     0.07700
Br1012     Br  0.07340596  0.78788664  0.80214569    -0.02900
C1013       C  0.40528070  0.64016407  0.75123827    -0.09600
C1014       C  0.37896366  0.62854487  0.73000660     0.06600
C1015       C  0.37418725  0.59789125  0.70053355    -0.03300
C1016       C  0.39562590  0.57937003  0.69276415    -0.07800
C1017       C  0.42195294  0.59056481  0.71400121     0.05700
C1018       C  0.42650615  0.62128526  0.74369605    -0.02800
Br1019     Br  0.46267383  0.64085434  0.77426122    -0.02500
H1020       H  0.40939855  0.66413068  0.77377132     0.09600
H1021       H  0.39154793  0.55594030  0.66987381     0.07700
Br1022     Br  0.34086409  0.58201908  0.66897384    -0.02900
C1023       C  0.44901314  0.81661461  0.71421464    -0.09600
C1024       C  0.42675945  0.83439958  0.72120420     0.06600
C1025       C  0.38709115  0.81554650  0.74017335    -0.03300
C1026       C  0.36889741  0.77753720  0.74901449    -0.07800
C1027       C  0.38911173  0.75702170  0.73906289     0.05700
C1028       C  0.43074297  0.77826941  0.72274192    -0.02800
Br1029     Br  0.46390039  0.75607988  0.70844414    -0.02500
H1030       H  0.48007103  0.83141195  0.70041209     0.09600
H1031       H  0.33784637  0.76309661  0.76275472     0.07700
Br1032     Br  0.35632131  0.84033608  0.75517702    -0.02900
C1033       C  0.18857954  0.61221702  0.74133378    -0.09600
C1034       C  0.17139579  0.57139643  0.72066661     0.06600
C1035       C  0.19339936  0.55282663  0.71089298    -0.03300
C1036       C  0.23345972  0.57657667  0.71991479    -0.07800
C1037       C  0.25203180  0.61874140  0.73886304     0.05700
C1038       C  0.22808182  0.63559633  0.75104586    -0.02800
Br1039     Br  0.24661845  0.68966472  0.78146299    -0.02500
H1040       H  0.17148659  0.62644586  0.74936194     0.09600
H1041       H  0.25096858  0.56271687  0.71046212     0.07700
Br1042     Br  0.17300562  0.99414265  0.67734627    -0.02900
C1043       C  0.35557743  0.58328872  0.96437865    -0.09600
C1044       C  0.37487470  0.62467001  0.98448159     0.06600
C1045       C  0.39295220  0.62221809  0.49631362    -0.03300
C1046       C  0.40932653  0.59852060  0.48820083    -0.07800
C1047       C  0.41078199  0.57960077  0.96674246     0.05700
C1048       C  0.37333088  0.56100724  0.95518119    -0.02800
Br1049     Br  0.34450824  0.50510508  0.92704789    -0.02500
H1050       H  0.32711215  0.56845913  0.95457993     0.09600
H1051       H  0.43637911  0.61136596  0.49907924     0.07700
Br1052     Br  0.41822768  0.67514060  0.52829397    -0.02900
C1053       C  0.39522215  0.81617541  0.98736362    -0.09600
C1054       C  0.43496884  0.83283585  0.96888183     0.06600
C1055       C  0.45416917  0.81167393  0.96160623    -0.03500
C1056       C  0.43194120  0.77274666  0.97079996    -0.07800
C1057       C  0.39080606  0.75464798  0.98727131     0.05700
C1058       C  0.36426439  0.76582594  0.49909632    -0.02800
Br1059     Br  0.31375300  0.75095175  0.52925000    -0.02500
H1060       H  0.37140963  0.82025743  0.49507899     0.09600
H1061       H  0.44580707  0.75528872  0.96308277     0.07700
Br1062     Br  0.50806856  0.83135918  0.93575318    -0.02900
C1063       C  0.16821750  0.54523721  0.47733931    -0.09600
C1064       C  0.17636179  0.57444051  0.95764514     0.06600
C1065       C  0.21320131  0.59927170  0.93746254    -0.03300
C1066       C  0.25228385  0.62081970  0.94700207    -0.07800
C1067       C  0.25588740  0.61722413  0.97588981     0.05700
C1068       C  0.20791402  0.56482008  0.48533376    -0.02800
Br1069     Br  0.21598114  0.52921394  0.49588731    -0.02500
H1070       H  0.14510401  0.51145383  0.47657455     0.09600
H1071       H  0.28025370  0.64034220  0.93152537     0.07700
Br1072     Br  0.21299295  0.60307742  0.89544215    -0.02900
C1073       C  0.85416851  0.14613214  0.99107123     0.79800
N1074       N  0.87926660  0.18895786  0.99254440    -0.78500
C1075       C  0.86281183  0.20905125  0.99258555     0.82200
N1076       N  0.82159118  0.18557095  0.98953992    -0.78500
C1077       C  0.79624515  0.14309139  0.98814618     0.82300
N1078       N  0.81268968  0.12336541  0.98857187    -0.80200
C1079       C  0.85068645  0.14137834  0.23559078     0.79800
N1080       N  0.87375087  0.18324814  0.23508391    -0.78500
C1081       C  0.85481524  0.20100404  0.23564666     0.82200
N1082       N  0.81242176  0.17645447  0.23729575    -0.78500
C1083       C  0.78896326  0.13472665  0.23834425     0.82300
N1084       N  0.80837411  0.11698776  0.23666205    -0.80200
C1085       C  0.63593746  0.31970975  0.34771027     0.79800
N1086       N  0.67660690  0.33950194  0.35080061    -0.78500
C1087       C  0.68973416  0.31667410  0.35117781     0.82200
N1088       N  0.66205406  0.27399628  0.34835278    -0.78500
C1089       C  0.62124604  0.25382938  0.34594585     0.82300
N1090       N  0.60811385  0.27687016  0.34587365    -0.80200
C1091       C  0.64965511  0.33493018  0.09987484     0.79800
N1092       N  0.63031215  0.29276930  0.09717474    -0.78500
C1093       C  0.65243307  0.27799130  0.09591930     0.82200
N1094       N  0.69423276  0.30623156  0.09760402    -0.78500
C1095       C  0.71392254  0.34833332  0.09999409     0.82300
N1096       N  0.69154173  0.36263388  0.10128761    -0.80200
O1097       O  0.55662271  0.41877898  0.35473745    -0.75700
O1098       O  0.55740725  0.42452963  0.40802789    -0.54600
C1099       C  0.56663008  0.41415842  0.37692657     0.78000
O1100       O  0.56085881  0.09665415  0.38972099    -0.60300
O1101       O  0.49606347  0.06168527  0.37537373    -0.53300
C1102       C  0.53462339  0.09359096  0.37711648     0.70000
O1103       O  0.61358357  0.06675227  0.44313398    -0.74900
O1104       O  0.58927944  0.50664832  0.45772536    -0.55400
C1105       C  0.61687572  0.04595286  0.45636431     0.76000
O1106       O  0.50458198  0.45711202  0.30988606    -0.60000
O1107       O  0.96417570  0.98348431  0.33158761    -0.53100
C1108       C  0.98846470  0.47485462  0.30865697     0.72600
Zr1109     Zr  0.51722892  0.44400148  0.35321910     2.54700
O1110       O  0.57779687  0.46906671  0.31123033    -0.80600
O1111       O  0.98486482  0.37511836  0.31544442    -0.94000
Zr1112     Zr  0.56283063  0.05543450  0.41644059     2.64700
O1113       O  0.62977978  0.08477852  0.38131719    -0.99000
O1114       O  0.58732485  0.12518310  0.45322920    -0.81000
O1115       O  0.55701064  0.49111852  0.39803608    -0.84400
O1116       O  0.52565756  0.00995643  0.37056830    -2.19100
O1117       O  0.86184391  0.38076110  0.38992954    -0.67800
O1118       O  0.88607486  0.44094378  0.37572202    -0.52300
C1119       C  0.85748003  0.40201219  0.37819844     0.71000
O1120       O  0.98738506  0.00789026  0.02339897    -0.60700
O1121       O  0.51118049  0.46422686  0.50039629    -0.52700
C1122       C  0.00538806  0.49375252  0.02727704     0.72800
O1123       O  0.92396351  0.03438443  0.47750368    -0.72100
O1124       O  0.92112846  0.02603841  0.42414235    -0.50700
C1125       C  0.91356345  0.03842517  0.45519446     0.74200
O1126       O  0.91436024  0.35064049  0.44269544    -0.67400
O1127       O  0.97883208  0.38537145  0.45743982    -0.54600
C1128       C  0.94022959  0.35345896  0.45555199     0.72600
Zr1129     Zr  0.91329837  0.39124833  0.41480248     2.77500
O1130       O  0.84685224  0.35627682  0.44987162    -0.98100
O1131       O  0.89162368  0.32474985  0.37384682    -0.79000
Zr1132     Zr  0.95800489  0.00358157  0.47940159     2.70100
O1133       O  0.91382627  0.49733644  0.02121805    -0.80200
O1134       O  0.51732365  0.09375033  0.01343565    -0.99300
Zr1135     Zr  0.51940233  0.45470138  0.44190287     2.21500
Zr1136     Zr  0.95436218  0.99088826  0.39023371     2.11100
O1137       O  0.91830518  0.45586647  0.43467583    -2.48000
O1138       O  0.95048487  0.43689779  0.46081043    -0.80000
O1139       O  0.94885964  0.42609045  0.37029002    -0.72200
O1140       O  0.52631049  0.02026824  0.46064584    -2.33200
O1141       O  0.98125011  0.40692806  0.39731621    -2.29400
O1142       O  0.49472599  0.03989178  0.43422130    -0.74000
H1143       H  0.53968752  0.02477405  0.35287480     0.78000
H1144       H  0.54178281  0.03765380  0.47931320     0.79100
H1145       H  0.89063997  0.44982669  0.44052465     0.81300
H1146       H  0.97921686  0.38070745  0.39090297     0.79000
H1147       H  0.57137419  0.11883873  0.47493206     0.42000
H1148       H  0.52668913  0.11392858  0.00031096     0.41000
H1149       H  0.89817933  0.46590324  0.01371206     0.40600
H1150       H  0.83669288  0.37424700  0.45508674     0.38600
H1151       H  0.89416655  0.33124098  0.35334721     0.41700
H1152       H  0.96047714  0.37077830  0.31047035     0.36500
H1153       H  0.59955471  0.49802575  0.32225215     0.42600
H1154       H  0.62226708  0.07184915  0.35869984     0.39000
H1155       H  0.82744776  0.32961939  0.43514732     0.43900
H1156       H  0.45859713  0.36894497  0.31149587     0.42700
H1157       H  0.64151728  0.11525622  0.38478640     0.42800
H1158       H  0.00984925  0.09323217  0.03785550     0.43200
O1159       O  0.56160890  0.42515162  0.10583360    -0.75700
O1160       O  0.55433662  0.42300636  0.15873382    -0.54600
C1161       C  0.56636557  0.41534128  0.12789121     0.78000
O1162       O  0.58898164  0.11602707  0.14385647    -0.60300
O1163       O  0.52718118  0.08738811  0.12776626    -0.53300
C1164       C  0.56597518  0.11734691  0.13101326     0.70000
O1165       O  0.62541899  0.06945937  0.19575341    -0.74900
O1166       O  0.59259252  0.50260394  0.20892983    -0.55400
C1167       C  0.62461803  0.04402588  0.20671535     0.76000
O1168       O  0.51725126  0.47201086  0.06171046    -0.60000
O1169       O  0.98656698  0.00611240  0.08309175    -0.53100
C1170       C  0.00356133  0.49135939  0.06023618     0.72600
Zr1171     Zr  0.52664890  0.45526365  0.10461873     2.54700
O1172       O  0.58669423  0.47612976  0.06203565    -0.80600
O1173       O  0.98651325  0.38462067  0.07080624    -0.94000
Zr1174     Zr  0.58095550  0.06724270  0.16905632     2.64700
O1175       O  0.64804301  0.09254358  0.13415818    -0.99000
O1176       O  0.61058719  0.13664286  0.20719997    -0.81000
O1177       O  0.56636393  0.49678998  0.14966144    -0.84400
O1178       O  0.54524988  0.02671902  0.12216489    -2.19100
O1179       O  0.87537760  0.41408617  0.14398225    -0.67800
O1180       O  0.90914615  0.47754052  0.12992412    -0.52300
C1181       C  0.87705290  0.43965664  0.13238735     0.71000
O1182       O  0.97379879  0.99519790  0.27260665    -0.60700
O1183       O  0.50951487  0.46373963  0.25086191    -0.52700
C1184       C  0.99278943  0.48051449  0.27626905     0.72800
O1185       O  0.94316887  0.05573502  0.22848315    -0.72100
O1186       O  0.95099651  0.05732977  0.17536473    -0.50700
C1187       C  0.93885382  0.06548423  0.20610363     0.74200
O1188       O  0.91335877  0.36397528  0.19197408    -0.67400
O1189       O  0.97618409  0.39160869  0.20588939    -0.54600
C1190       C  0.93699390  0.36231797  0.20372603     0.72600
Zr1191     Zr  0.92039692  0.41317468  0.16789187     2.77500
O1192       O  0.85721237  0.38919430  0.20754350    -0.98100
O1193       O  0.88569706  0.34501433  0.12874609    -0.79000
Zr1194     Zr  0.97403657  0.02192694  0.23088748     2.70100
O1195       O  0.91451523  0.50824131  0.27317454    -0.80200
O1196       O  0.51286153  0.08676556  0.26825383    -0.99300
Zr1197     Zr  0.52315127  0.45996195  0.19280325     2.21500
Zr1198     Zr  0.97900507  0.01737141  0.14196315     2.11100
O1199       O  0.93618571  0.48276076  0.18763627    -2.48000
O1200       O  0.95884931  0.45433275  0.21329472    -0.80000
O1201       O  0.96120678  0.44754721  0.12321298    -0.72200
O1202       O  0.53924199  0.03058721  0.21252526    -2.33200
O1203       O  0.98405503  0.41867415  0.14918465    -2.29400
O1204       O  0.51623688  0.05941346  0.18656328    -0.74000
H1205       H  0.56115544  0.04194637  0.10465625     0.78000
H1206       H  0.55393048  0.04516095  0.23152645     0.79100
H1207       H  0.91048088  0.48088262  0.19369943     0.81300
H1208       H  0.97849344  0.39069391  0.14262574     0.79000
H1209       H  0.61104252  0.13176978  0.22739646     0.42000
H1210       H  0.52738840  0.10948007  0.25608000     0.41000
H1211       H  0.89169177  0.47927584  0.26316774     0.40600
H1212       H  0.85558294  0.41398606  0.21681291     0.38600
H1213       H  0.89608016  0.35266494  0.10711591     0.41700
H1214       H  0.00757449  0.38387844  0.05232714     0.36500
H1215       H  0.60666768  0.50728301  0.06994386     0.42600
H1216       H  0.64203035  0.08760868  0.11229423     0.39000
H1217       H  0.83377103  0.36806017  0.19412259     0.43900
H1218       H  0.45685815  0.37738573  0.07416014     0.42700
H1219       H  0.66505952  0.12398625  0.14205469     0.42800
H1220       H  0.02671251  0.08413784  0.28110414     0.43200
C1221       C  0.62913119  0.17716619  0.10623559    -0.09600
C1222       C  0.58632956  0.15580780  0.11856708     0.06600
C1223       C  0.56463862  0.17217622  0.11906218    -0.03300
C1224       C  0.58638272  0.21019442  0.10896577    -0.07800
C1225       C  0.62994208  0.23346915  0.09902481     0.05700
C1226       C  0.65099177  0.21536796  0.09631735    -0.02800
Br1227     Br  0.70912615  0.23986886  0.07908151    -0.02500
H1228       H  0.64595056  0.16421287  0.10454486     0.09600
H1229       H  0.56911409  0.22257646  0.11064807     0.07700
Br1230     Br  0.50648668  0.14723495  0.13630888    -0.02900
C1231       C  0.78683534  0.37020329  0.08368051    -0.09600
C1232       C  0.75812924  0.37835428  0.10526191     0.06600
C1233       C  0.77112136  0.41154536  0.13372944    -0.03300
C1234       C  0.81146194  0.43359282  0.14140472    -0.07800
C1235       C  0.83902386  0.42336837  0.12075490     0.05700
C1236       C  0.82731855  0.39294174  0.09113165    -0.02800
Br1237     Br  0.86554074  0.38073365  0.06113407    -0.02500
H1238       H  0.77727884  0.34512427  0.06158556     0.09600
H1239       H  0.82052395  0.45706446  0.16434103     0.07700
Br1240     Br  0.73401193  0.42498704  0.16477713    -0.02900
C1241       C  0.64379643  0.38643762  0.09046523    -0.09600
C1242       C  0.62543635  0.35174278  0.10428056     0.06600
C1243       C  0.58666943  0.33716345  0.12466203    -0.03300
C1244       C  0.56740127  0.35753952  0.13087188    -0.07800
C1245       C  0.58617073  0.39268614  0.11754076     0.05700
C1246       C  0.62470972  0.40714315  0.09708331    -0.02800
Br1247     Br  0.65516986  0.45777396  0.08075024    -0.02500
H1248       H  0.67394407  0.39847844  0.07531012     0.09600
H1249       H  0.53808446  0.34667276  0.14709852     0.07700
Br1250     Br  0.56041044  0.29319379  0.14789235    -0.02900
C1251       C  0.53301629  0.15234964  0.37594245    -0.09600
C1252       C  0.55083190  0.12945801  0.36334421     0.06600
C1253       C  0.58715936  0.14412303  0.34035101    -0.03300
C1254       C  0.60691407  0.18282925  0.33218851    -0.07800
C1255       C  0.59188049  0.20829273  0.34741062     0.05700
C1256       C  0.55359647  0.19203413  0.36865391    -0.02800
Br1257     Br  0.53116145  0.22473648  0.39257626    -0.02500
H1258       H  0.50500704  0.14114072  0.39367677     0.09600
H1259       H  0.63599493  0.19457073  0.31561296     0.07700
Br1260     Br  0.61249983  0.11372047  0.32091206    -0.02900
C1261       C  0.76651932  0.37227917  0.34276602    -0.09600
C1262       C  0.73265590  0.33828162  0.35756056     0.06600
C1263       C  0.74030174  0.32571225  0.37872109    -0.03300
C1264       C  0.78120820  0.34599741  0.38373238    -0.07800
C1265       C  0.81546278  0.38009474  0.36904657     0.05700
C1266       C  0.80771346  0.39324621  0.34824608    -0.02800
Br1267     Br  0.85125411  0.43847206  0.32581945    -0.02500
H1268       H  0.76093289  0.38236945  0.32663180     0.09600
H1269       H  0.78586913  0.33597779  0.40056085     0.07700
Br1270     Br  0.69638265  0.28456791  0.40470872    -0.02900
C1271       C  0.63865218  0.38549848  0.37368927    -0.09600
C1272       C  0.62113305  0.34570697  0.35143519     0.06600
C1273       C  0.58886188  0.33122177  0.33468072    -0.03300
C1274       C  0.57264786  0.35499110  0.34226431    -0.07800
C1275       C  0.58850224  0.39342926  0.36607079     0.05700
C1276       C  0.62278534  0.40936446  0.38092817    -0.02800
Br1277     Br  0.65019861  0.46415750  0.41027177    -0.02500
H1278       H  0.66413381  0.39769990  0.38625927     0.09600
H1279       H  0.54677961  0.34279682  0.33017067     0.07700
Br1280     Br  0.56720205  0.28059251  0.30023018    -0.02900
C1281       C  0.89772282  0.13368311  0.25141804    -0.09600
C1282       C  0.87198438  0.12112650  0.22919662     0.06600
C1283       C  0.86891009  0.09108944  0.19973394    -0.03300
C1284       C  0.89064612  0.07329091  0.19319823    -0.07800
C1285       C  0.91625528  0.08529961  0.21537565     0.05700
C1286       C  0.91988732  0.11597809  0.24476553    -0.02800
Br1287     Br  0.95696049  0.13743119  0.27522140    -0.02500
H1288       H  0.90095502  0.15766118  0.27375591     0.09600
H1289       H  0.88772386  0.05006945  0.17036509     0.07700
Br1290     Br  0.83814672  0.07567065  0.16633606    -0.02900
C1291       C  0.93883184  0.30396553  0.20528820    -0.09600
C1292       C  0.91787493  0.32352368  0.21494265     0.06600
C1293       C  0.87856253  0.30497993  0.23436033    -0.03300
C1294       C  0.85976374  0.26615569  0.24200322    -0.07800
C1295       C  0.87943538  0.24502810  0.23084025     0.05700
C1296       C  0.92009458  0.26500137  0.21289672    -0.02800
Br1297     Br  0.95090380  0.24010306  0.19551479    -0.02500
H1298       H  0.96930214  0.31823858  0.19058985     0.09600
H1299       H  0.82914440  0.25211587  0.25647033     0.07700
Br1300     Br  0.84982004  0.33202105  0.25239436    -0.02900
C1301       C  0.67936112  0.10119905  0.24241942    -0.09600
C1302       C  0.66272576  0.06206012  0.21952560     0.06600
C1303       C  0.68567283  0.04429002  0.20620035    -0.03300
C1304       C  0.72597897  0.06720956  0.21439101    -0.07800
C1305       C  0.74373733  0.10774916  0.23580375     0.05700
C1306       C  0.71920226  0.12373849  0.25109224    -0.02800
Br1307     Br  0.73801801  0.17575456  0.28420808    -0.02500
H1308       H  0.66170167  0.11490899  0.25286133     0.09600
H1309       H  0.74440895  0.05447844  0.20235090     0.07700
Br1310     Br  0.66204352  0.48549208  0.18362635    -0.02900
C1311       C  0.84125117  0.06709494  0.45849322    -0.09600
C1312       C  0.85610585  0.10480857  0.48302273     0.06600
C1313       C  0.90891932  0.14093211  0.99931428    -0.03300
C1314       C  0.92713687  0.11878519  0.99057322    -0.07800
C1315       C  0.89173675  0.05929556  0.46582417     0.05700
C1316       C  0.85885737  0.04454050  0.44963623    -0.02800
Br1317     Br  0.83577989  0.99335804  0.41570495    -0.02500
H1318       H  0.81666671  0.05577848  0.44528389     0.09600
H1319       H  0.95531202  0.13317909  0.00061553     0.07700
Br1320     Br  0.93459293  0.19498843  0.03009648    -0.02900
C1321       C  0.88415271  0.30213013  0.48967073    -0.09600
C1322       C  0.92289773  0.31741769  0.46987288     0.06600
C1323       C  0.94178057  0.29592604  0.46247773    -0.03500
C1324       C  0.91930242  0.25690885  0.47175937    -0.07800
C1325       C  0.87872579  0.23983163  0.48932603     0.05700
C1326       C  0.87385818  0.27913176  0.00182525    -0.02800
Br1327     Br  0.82232288  0.26268011  0.03087615    -0.02500
H1328       H  0.88120154  0.33421590  0.99920772     0.09600
H1329       H  0.93256068  0.23882444  0.46354489     0.07700
Br1330     Br  0.99610113  0.31633244  0.43725556    -0.02900
C1331       C  0.67831658  0.06958632  0.98666129    -0.09600
C1332       C  0.65672124  0.06840384  0.46958661     0.06600
C1333       C  0.68570015  0.11330051  0.47606490    -0.03300
C1334       C  0.72551678  0.13209993  0.48297838    -0.07800
C1335       C  0.73764557  0.10758096  0.48463105     0.05700
C1336       C  0.71726929  0.09083695  0.99696551    -0.02800
Br1337     Br  0.71829693  0.08412049  0.03736441    -0.02500
H1338       H  0.64986749  0.04967547  0.00157398     0.09600
H1339       H  0.74726747  0.16647323  0.48666638     0.07700
Br1340     Br  0.67294644  0.15169092  0.47802983    -0.02900
C1341       C  0.83943150  0.12965338  0.48844971     0.79800
N1342       N  0.86601315  0.17250681  0.48994763    -0.78500
C1343       C  0.85076281  0.19425423  0.49126242     0.82200
N1344       N  0.80932005  0.17247291  0.48997379    -0.78500
C1345       C  0.78237240  0.12993213  0.48835206     0.82300
N1346       N  0.79790489  0.10862572  0.48720943    -0.80200
C1347       C  0.85741760  0.14818895  0.73628277     0.79800
N1348       N  0.88085266  0.19065149  0.73742230    -0.78500
C1349       C  0.86240507  0.20919122  0.73853485     0.82200
N1350       N  0.82022449  0.18474878  0.73887163    -0.78500
C1351       C  0.79628165  0.14253491  0.73848703     0.82300
N1352       N  0.81523329  0.12417796  0.73649888    -0.80200
C1353       C  0.64906065  0.33436222  0.84723345     0.79800
N1354       N  0.68985920  0.35506397  0.85045662    -0.78500
C1355       C  0.70358628  0.33344993  0.85222728     0.82200
N1356       N  0.67640730  0.29093763  0.85059671    -0.78500
C1357       C  0.63551930  0.27000953  0.84800574     0.82300
N1358       N  0.62165833  0.29186774  0.84677234    -0.80200
C1359       C  0.65698880  0.33966522  0.59774839     0.79800
N1360       N  0.63640375  0.29734257  0.59569692    -0.78500
C1361       C  0.65772103  0.28109413  0.59302319     0.82200
N1362       N  0.69987918  0.30816455  0.59307810    -0.78500
C1363       C  0.72086666  0.35045524  0.59503745     0.82300
N1364       N  0.69925027  0.36603686  0.59724525    -0.80200
O1365       O  0.56591356  0.42987048  0.85578887    -0.75700
O1366       O  0.56743240  0.43655367  0.90914127    -0.54600
C1367       C  0.57604944  0.42548392  0.87801920     0.78000
O1368       O  0.57717047  0.11169941  0.88938755    -0.60300
O1369       O  0.51187350  0.07772776  0.87640034    -0.53300
C1370       C  0.55049109  0.10941472  0.87805593     0.70000
O1371       O  0.63164926  0.07603946  0.93560815    -0.74900
O1372       O  0.60301451  0.52064164  0.95934716    -0.55400
C1373       C  0.63461658  0.05478081  0.94860674     0.76000
O1374       O  0.51712608  0.47207206  0.81105790    -0.60000
O1375       O  0.97886063  0.99909228  0.83321845    -0.53100
C1376       C  0.99672543  0.48661700  0.81031100     0.72600
Zr1377     Zr  0.52885896  0.45751393  0.85435708     2.54700
O1378       O  0.59235826  0.48275012  0.81512714    -0.80600
O1379       O  0.98421677  0.38425581  0.82036774    -0.94000
Zr1380     Zr  0.57967705  0.06855329  0.91347287     2.64700
O1381       O  0.64095671  0.09323001  0.87207838    -0.99000
O1382       O  0.61283555  0.13902161  0.95010254    -0.81000
O1383       O  0.56969083  0.50421547  0.89868577    -0.84400
O1384       O  0.53895302  0.02216866  0.86971660    -2.19100
O1385       O  0.87214241  0.40227217  0.89877930    -0.67800
O1386       O  0.89867202  0.46123685  0.88146357    -0.52300
C1387       C  0.86884438  0.42344693  0.88600557     0.71000
O1388       O  0.97543758  0.99482162  0.52268197    -0.60700
O1389       O  0.52163476  0.47786433  0.00240003    -0.52700
C1390       C  0.99422653  0.48121784  0.52633856     0.72800
O1391       O  0.94490217  0.05638575  0.97900066    -0.72100
O1392       O  0.93837684  0.04483127  0.92592191    -0.50700
C1393       C  0.93256338  0.05872217  0.95698340     0.74200
O1394       O  0.92467735  0.36833650  0.94767613    -0.67400
O1395       O  0.99038143  0.39982132  0.95815553    -0.54600
C1396       C  0.95108326  0.36927756  0.95812879     0.72600
Zr1397     Zr  0.92395043  0.41040572  0.92124336     2.77500
O1398       O  0.86112595  0.38372747  0.96121930    -0.98100
O1399       O  0.89507069  0.34037077  0.88402586    -0.79000
Zr1400     Zr  0.97967946  0.02628754  0.98078064     2.70100
O1401       O  0.89062234  0.46728575  0.51451599    -0.80200
O1402       O  0.48638486  0.07019776  0.51796337    -0.99300
Zr1403     Zr  0.53242884  0.46979922  0.94366107     2.21500
Zr1404     Zr  0.97246671  0.01036828  0.89211220     2.11100
O1405       O  0.93384279  0.47743566  0.93936478    -2.48000
O1406       O  0.96551583  0.45706811  0.96454627    -0.80000
O1407       O  0.95782327  0.44176195  0.87484704    -0.72200
O1408       O  0.54461208  0.03652806  0.95945773    -2.33200
O1409       O  0.98971734  0.42104918  0.90069080    -2.29400
O1410       O  0.51335160  0.05715551  0.93301341    -0.74000
H1411       H  0.55263904  0.03648277  0.85174474     0.78000
H1412       H  0.56141885  0.05390886  0.97735274     0.79100
H1413       H  0.90699617  0.47327669  0.94637638     0.81300
H1414       H  0.98611015  0.39403563  0.89461479     0.79000
H1415       H  0.63436024  0.15894892  0.93552505     0.42000
H1416       H  0.49366638  0.09115973  0.50661553     0.41000
H1417       H  0.88124103  0.43729657  0.50935993     0.40600
H1418       H  0.85406403  0.40437870  0.96694272     0.38600
H1419       H  0.86538945  0.32850287  0.88447216     0.41700
H1420       H  0.99938121  0.38777137  0.79799259     0.36500
H1421       H  0.61169642  0.51332496  0.82520468     0.42600
H1422       H  0.63024436  0.08606406  0.85181735     0.39000
H1423       H  0.83866884  0.35742269  0.94847733     0.43900
H1424       H  0.47087741  0.38565936  0.81040293     0.42700
H1425       H  0.65759466  0.12478313  0.87875620     0.42800
H1426       H  0.96831521  0.07576684  0.52970061     0.43200
O1427       O  0.56547774  0.42722774  0.60570515    -0.75700
O1428       O  0.56224169  0.43025540  0.65919439    -0.54600
C1429       C  0.57263496  0.42031581  0.62822833     0.78000
O1430       O  0.59341446  0.11753044  0.63855783    -0.60300
O1431       O  0.53068261  0.08860233  0.62401474    -0.53300
C1432       C  0.56976337  0.11851595  0.62620190     0.70000
O1433       O  0.63408468  0.07341855  0.68906863    -0.74900
O1434       O  0.60065986  0.51125973  0.70782010    -0.55400
C1435       C  0.63299213  0.05021622  0.70304199     0.76000
O1436       O  0.51289407  0.46467711  0.56021426    -0.60000
O1437       O  0.98463766  0.00272350  0.58247759    -0.53100
C1438       C  0.99762718  0.48421774  0.55950205     0.72600
Zr1439     Zr  0.52983391  0.45623289  0.60381849     2.54700
O1440       O  0.59165461  0.48191161  0.56298154    -0.80600
O1441       O  0.99258828  0.38501806  0.57151814    -0.94000
Zr1442     Zr  0.58800920  0.06913444  0.66232776     2.64700
O1443       O  0.64531887  0.08208110  0.61784300    -0.99000
O1444       O  0.63242602  0.14193218  0.69289163    -0.81000
O1445       O  0.57185625  0.50043360  0.64736771    -0.84400
O1446       O  0.54646864  0.02521820  0.61883379    -2.19100
O1447       O  0.88295017  0.41552114  0.64071489    -0.67800
O1448       O  0.91417934  0.47957100  0.62878488    -0.52300
C1449       C  0.88364001  0.44049854  0.62914025     0.71000
O1450       O  0.98396325  0.00539178  0.77328904    -0.60700
O1451       O  0.52016097  0.47620926  0.75152393    -0.52700
C1452       C  0.00050619  0.49094752  0.77744889     0.72800
O1453       O  0.95043615  0.06178738  0.72844188    -0.72100
O1454       O  0.95163225  0.05684486  0.67499770    -0.50700
C1455       C  0.94276074  0.06836534  0.70599378     0.74200
O1456       O  0.92012375  0.37286186  0.69743824    -0.67400
O1457       O  0.98397148  0.40006356  0.70907165    -0.54600
C1458       C  0.94434408  0.37147328  0.70872832     0.72600
Zr1459     Zr  0.92649263  0.41897026  0.67001120     2.77500
O1460       O  0.86269338  0.39982803  0.70848208    -0.98100
O1461       O  0.89138093  0.34754646  0.63499685    -0.79000
Zr1462     Zr  0.98163002  0.02795753  0.73017036     2.70100
O1463       O  0.92377504  0.51755968  0.77194347    -0.80200
O1464       O  0.53523549  0.10269450  0.76113810    -0.99300
Zr1465     Zr  0.53075906  0.46748509  0.69279076     2.21500
Zr1466     Zr  0.98159573  0.01841267  0.64127263     2.11100
O1467       O  0.94293094  0.48885953  0.68776370    -2.48000
O1468       O  0.96702238  0.46231466  0.71416181    -0.80000
O1469       O  0.96587616  0.45093116  0.62420180    -0.72200
O1470       O  0.54984639  0.03926456  0.70951534    -2.33200
O1471       O  0.98968969  0.42373238  0.65075940    -2.29400
O1472       O  0.52571758  0.06618837  0.68316026    -0.74000
H1473       H  0.56074017  0.03817894  0.60005351     0.78000
H1474       H  0.56650122  0.05537630  0.72744800     0.79100
H1475       H  0.91729480  0.48711961  0.69390894     0.81300
H1476       H  0.98376017  0.39569435  0.64522967     0.79000
H1477       H  0.61849113  0.14146427  0.71581406     0.42000
H1478       H  0.54483771  0.12340983  0.74846463     0.41000
H1479       H  0.89962486  0.49336614  0.75982086     0.40600
H1480       H  0.85332184  0.41544974  0.70568513     0.38600
H1481       H  0.90372420  0.35215650  0.61239355     0.41700
H1482       H  0.96920040  0.38125441  0.56533338     0.36500
H1483       H  0.58468160  0.45660736  0.54468479     0.42600
H1484       H  0.66773060  0.11288232  0.62421220     0.39000
H1485       H  0.84171254  0.36948378  0.69906947     0.43900
H1486       H  0.48586073  0.36549080  0.58243657     0.42700
H1487       H  0.65600252  0.06738532  0.62015063     0.42800
H1488       H  0.00689567  0.10102906  0.78324447     0.43200
C1489       C  0.63256728  0.17797879  0.60085332    -0.09600
C1490       C  0.58986349  0.15681063  0.61339933     0.06600
C1491       C  0.56858953  0.17395252  0.61457310    -0.03300
C1492       C  0.59089349  0.21299421  0.60567696    -0.07800
C1493       C  0.63448779  0.23606678  0.59565759     0.05700
C1494       C  0.65487620  0.21684228  0.59183452    -0.02800
Br1495     Br  0.71288694  0.24073125  0.57474349    -0.02500
H1496       H  0.64910288  0.16448127  0.59852123     0.09600
H1497       H  0.57408101  0.22625780  0.60828619     0.07700
Br1498     Br  0.51015597  0.14826830  0.63087278    -0.02900
C1499       C  0.79105017  0.36466044  0.58199184    -0.09600
C1500       C  0.76574838  0.37925785  0.59920539     0.06600
C1501       C  0.78254552  0.41811417  0.62317056    -0.03300
C1502       C  0.82261047  0.43946992  0.63110684    -0.07800
C1503       C  0.84605377  0.42263007  0.61575128     0.05700
C1504       C  0.83100536  0.38617009  0.59006113    -0.02800
Br1505     Br  0.86414619  0.36483516  0.56579004    -0.02500
H1506       H  0.77911131  0.33555015  0.56301787     0.09600
H1507       H  0.83438935  0.46781885  0.65081244     0.07700
Br1508     Br  0.75126864  0.44138558  0.64895731    -0.02900
C1509       C  0.64866916  0.38923871  0.58742106    -0.09600
C1510       C  0.63360153  0.35801314  0.60402867     0.06600
C1511       C  0.59849340  0.34754674  0.62830082    -0.03300
C1512       C  0.57855688  0.36736383  0.63486249    -0.07800
C1513       C  0.59342390  0.39848103  0.61825548     0.05700
C1514       C  0.62899282  0.40954688  0.59432594    -0.02800
Br1515     Br  0.65452046  0.45467817  0.57257434    -0.02500
H1516       H  0.67637335  0.39844854  0.56941448     0.09600
H1517       H  0.55178509  0.35915356  0.65375624     0.07700
Br1518     Br  0.57923614  0.31054595  0.65617642    -0.02900
C1519       C  0.55346116  0.17337165  0.88467234    -0.09600
C1520       C  0.56590354  0.14627809  0.86618408     0.06600
C1521       C  0.59658523  0.15739356  0.83869961    -0.03300
C1522       C  0.61680932  0.19687724  0.83156531    -0.07800
C1523       C  0.60647888  0.22541940  0.85129996     0.05700
C1524       C  0.57367246  0.21299358  0.87756871    -0.02800
Br1525     Br  0.55908000  0.25081404  0.90722539    -0.02500
H1526       H  0.52991265  0.16491764  0.90595330     0.09600
H1527       H  0.64200275  0.20614358  0.81138263     0.07700
Br1528     Br  0.61241953  0.12000731  0.81076015    -0.02900
C1529       C  0.78020329  0.38976452  0.84522205    -0.09600
C1530       C  0.74581042  0.35679435  0.86075430     0.06600
C1531       C  0.75196177  0.34788098  0.88555413    -0.03300
C1532       C  0.79219926  0.37012247  0.89303394    -0.07800
C1533       C  0.82712182  0.40231495  0.87693167     0.05700
C1534       C  0.82069037  0.41280439  0.85319692    -0.02800
Br1535     Br  0.86505148  0.45727967  0.83027004    -0.02500
H1536       H  0.77556463  0.39747081  0.82666363     0.09600
H1537       H  0.79593028  0.36263548  0.91227864     0.07700
Br1538     Br  0.70669197  0.30869910  0.91251005    -0.02900
C1539       C  0.64927432  0.39829263  0.87455496    -0.09600
C1540       C  0.63341000  0.35956901  0.85110658     0.06600
C1541       C  0.60133073  0.34493612  0.83407907    -0.03300
C1542       C  0.58416626  0.36791972  0.84211570    -0.07800
C1543       C  0.59829294  0.40516717  0.86716830     0.05700
C1544       C  0.63194495  0.42091172  0.88276565    -0.02800
Br1545     Br  0.65610961  0.47334140  0.91516211    -0.02500
H1546       H  0.67426573  0.41030502  0.88762246     0.09600
H1547       H  0.55872716  0.35584556  0.82955460     0.07700
Br1548     Br  0.58061302  0.29468910  0.79926143    -0.02900
C1549       C  0.90430941  0.13943571  0.75143016    -0.09600
C1550       C  0.87824854  0.12719787  0.72961235     0.06600
C1551       C  0.87361807  0.09595749  0.70063186    -0.03300
C1552       C  0.89452795  0.07720175  0.69399727    -0.07800
C1553       C  0.92061592  0.08898454  0.71568265     0.05700
C1554       C  0.92518020  0.12033284  0.74492523    -0.02800
Br1555     Br  0.96077162  0.14010401  0.77607394    -0.02500
H1556       H  0.90841348  0.16391448  0.77358063     0.09600
H1557       H  0.89046477  0.05328505  0.67143595     0.07700
Br1558     Br  0.84165609  0.07985167  0.66789195    -0.02900
C1559       C  0.94731217  0.31461914  0.71192458    -0.09600
C1560       C  0.92567874  0.33340169  0.72090927     0.06600
C1561       C  0.88591632  0.31403839  0.73966879    -0.03300
C1562       C  0.86736860  0.27503381  0.74696346    -0.07800
C1563       C  0.88738813  0.25418653  0.73564891     0.05700
C1564       C  0.92859434  0.27523936  0.71877408    -0.02800
Br1565     Br  0.96002539  0.25101037  0.70113617    -0.02500
H1566       H  0.97813138  0.32946999  0.69776688     0.09600
H1567       H  0.83641248  0.26032969  0.76081427     0.07700
Br1568     Br  0.85566163  0.33951357  0.75647570    -0.02900
C1569       C  0.68859225  0.11069027  0.73692190    -0.09600
C1570       C  0.67102520  0.06967049  0.71669405     0.06600
C1571       C  0.69199030  0.05014346  0.70787823    -0.03300
C1572       C  0.73202162  0.07353699  0.71685479    -0.07800
C1573       C  0.75114126  0.11602042  0.73515393     0.05700
C1574       C  0.72782286  0.13357303  0.74681145    -0.02800
Br1575     Br  0.74683340  0.18803671  0.77673768    -0.02500
H1576       H  0.67193458  0.12535361  0.74459198     0.09600
H1577       H  0.74900170  0.05913112  0.70800886     0.07700
Br1578     Br  0.67062078  0.49396095  0.67963604    -0.02900
C1579       C  0.85479893  0.08219674  0.96472560    -0.09600
C1580       C  0.87270179  0.12293053  0.98582931     0.06600
C1581       C  0.88755348  0.11851717  0.50032638    -0.03300
C1582       C  0.90491303  0.09559475  0.49176142    -0.07800
C1583       C  0.91035407  0.07918826  0.96807001     0.05700
C1584       C  0.87334250  0.06051271  0.95562743    -0.02800
Br1585     Br  0.84604376  0.00506939  0.92664262    -0.02500
H1586       H  0.82688917  0.06754452  0.95419967     0.09600
H1587       H  0.92964990  0.10690805  0.50478835     0.07700
Br1588     Br  0.90695011  0.16729079  0.53639486    -0.02900
C1589       C  0.89534410  0.31713706  0.99189239    -0.09600
C1590       C  0.93372421  0.33245693  0.97151509     0.06600
C1591       C  0.95190521  0.30996175  0.96229067    -0.03500
C1592       C  0.92988893  0.27110437  0.97162658    -0.07800
C1593       C  0.88993457  0.25437634  0.99021737     0.05700
C1594       C  0.86278138  0.26468988  0.50034810    -0.02800
Br1595     Br  0.81191233  0.24951412  0.53002336    -0.02500
H1596       H  0.86994041  0.31910134  0.49635423     0.09600
H1597       H  0.94278856  0.25260972  0.96241395     0.07700
Br1598     Br  0.00381382  0.32792144  0.93365379    -0.02900
C1599       C  0.66715170  0.04423325  0.47443410    -0.09600
C1600       C  0.67592484  0.07512304  0.95794939     0.06600
C1601       C  0.71345515  0.10094107  0.93879336    -0.03300
C1602       C  0.75192951  0.12228417  0.94931581    -0.07800
C1603       C  0.75432160  0.11800745  0.97840330     0.05700
C1604       C  0.70696885  0.06302544  0.48163711    -0.02800
Br1605     Br  0.71593695  0.02491632  0.48670959    -0.02500
H1606       H  0.64452286  0.01004341  0.47174360     0.09600
H1607       H  0.78043091  0.14225546  0.93444180     0.07700
Br1608     Br  0.71511857  0.10683820  0.89700460    -0.02900
C1609       C  0.85565707  0.64876230  0.99117608     0.79800
N1610       N  0.88124680  0.69176393  0.99354526    -0.78500
C1611       C  0.86521930  0.71290264  0.99524742     0.82200
N1612       N  0.82384406  0.69033244  0.99342194    -0.78500
C1613       C  0.79779619  0.64753483  0.99073685     0.82300
N1614       N  0.81412324  0.62683282  0.98922951    -0.80200
C1615       C  0.85091344  0.64235622  0.23694149     0.79800
N1616       N  0.87375491  0.68367249  0.23498123    -0.78500
C1617       C  0.85446666  0.70084668  0.23507476     0.82200
N1618       N  0.81197993  0.67638476  0.23764150    -0.78500
C1619       C  0.78869052  0.63522167  0.24026010     0.82300
N1620       N  0.80843310  0.61809284  0.23927126    -0.80200
C1621       C  0.63459758  0.81931670  0.34745280     0.79800
N1622       N  0.67540107  0.83844035  0.34967070    -0.78500
C1623       C  0.68756633  0.81550928  0.35167950     0.82200
N1624       N  0.65884039  0.77340171  0.35114939    -0.78500
C1625       C  0.61798851  0.75415035  0.34977013     0.82300
N1626       N  0.60573679  0.77727199  0.34830652    -0.80200
C1627       C  0.64817484  0.83434590  0.10118115     0.79800
N1628       N  0.62879242  0.79271507  0.10061067    -0.78500
C1629       C  0.65093402  0.77887927  0.10134210     0.82200
N1630       N  0.69267605  0.80742568  0.10286431    -0.78500
C1631       C  0.71244079  0.84889125  0.10306907     0.82300
N1632       N  0.69014104  0.86236410  0.10236202    -0.80200
O1633       O  0.55409672  0.91606741  0.35283892    -0.75700
O1634       O  0.55833411  0.92530391  0.40612274    -0.54600
C1635       C  0.56582499  0.91324775  0.37494152     0.78000
O1636       O  0.55858873  0.59766949  0.39329359    -0.60300
O1637       O  0.49353792  0.56200606  0.37912444    -0.53300
C1638       C  0.53173438  0.59452783  0.38147139     0.70000
O1639       O  0.61310109  0.56619256  0.44293807    -0.74900
O1640       O  0.58843854  0.00660873  0.45796981    -0.55400
C1641       C  0.61749820  0.54577155  0.45553562     0.76000
O1642       O  0.50516764  0.95799801  0.30823905    -0.60000
O1643       O  0.96778679  0.48663192  0.33260348    -0.53100
C1644       C  0.98373122  0.97042808  0.30740080     0.72600
Zr1645     Zr  0.51735387  0.94391514  0.35143201     2.54700
O1646       O  0.58202955  0.97367681  0.31372679    -0.80600
O1647       O  0.97096677  0.86642137  0.31897143    -0.94000
Zr1648     Zr  0.56154134  0.55557169  0.41813498     2.64700
O1649       O  0.62760933  0.58686910  0.38215083    -0.99000
O1650       O  0.58561537  0.62434954  0.45645610    -0.81000
O1651       O  0.55684410  0.99027648  0.39656164    -0.84400
O1652       O  0.52460872  0.50980726  0.37227903    -2.19100
O1653       O  0.85877166  0.88007817  0.39184186    -0.67800
O1654       O  0.88330527  0.93995224  0.37693508    -0.52300
C1655       C  0.85464119  0.90120523  0.37979191     0.71000
O1656       O  0.98871104  0.51054134  0.02492491    -0.60700
O1657       O  0.51039476  0.96413655  0.49952073    -0.52700
C1658       C  0.00540790  0.99259314  0.02595264     0.72800
O1659       O  0.92313767  0.53297498  0.47782945    -0.72100
O1660       O  0.92022306  0.52418685  0.42435919    -0.50700
C1661       C  0.91265210  0.53664448  0.45536615     0.74200
O1662       O  0.91132094  0.85053614  0.44519335    -0.67400
O1663       O  0.97700079  0.88375870  0.45661858    -0.54600
C1664       C  0.93792138  0.85270019  0.45653308     0.72600
Zr1665     Zr  0.90967641  0.89054459  0.41708527     2.77500
O1666       O  0.84425959  0.85965825  0.45408300    -0.98100
O1667       O  0.88425780  0.82116502  0.37939246    -0.79000
Zr1668     Zr  0.95729217  0.50242017  0.47980612     2.70100
O1669       O  0.91944454  0.00870229  0.02302213    -0.80200
O1670       O  0.50506885  0.58826992  0.02122650    -0.99300
Zr1671     Zr  0.51922062  0.95422168  0.44065673     2.21500
Zr1672     Zr  0.95649101  0.49225074  0.39081543     2.11100
O1673       O  0.91714391  0.95646610  0.43538948    -2.48000
O1674       O  0.94906947  0.93707764  0.46175051    -0.80000
O1675       O  0.94365119  0.92314143  0.37126278    -0.72200
O1676       O  0.52569497  0.52032198  0.46226428    -2.33200
O1677       O  0.97647111  0.90364604  0.39770238    -2.29400
O1678       O  0.49325997  0.53919698  0.43596766    -0.74000
H1679       H  0.53848340  0.52486426  0.35473756     0.78000
H1680       H  0.54136520  0.53774942  0.48082365     0.79100
H1681       H  0.88985545  0.95133087  0.44171107     0.81300
H1682       H  0.97382398  0.87713485  0.39170296     0.79000
H1683       H  0.57741788  0.61808671  0.47839535     0.42000
H1684       H  0.51523502  0.61029556  0.00970261     0.41000
H1685       H  0.89927132  0.97734756  0.01636167     0.40600
H1686       H  0.83513332  0.87836842  0.45860191     0.38600
H1687       H  0.85445167  0.80806561  0.37892242     0.41700
H1688       H  0.99232872  0.86242246  0.30360866     0.36500
H1689       H  0.60409096  0.99691515  0.32805276     0.42600
H1690       H  0.61947823  0.57785651  0.36018358     0.39000
H1691       H  0.82374027  0.83257894  0.44035935     0.43900
H1692       H  0.45642315  0.86926480  0.31104029     0.42700
H1693       H  0.64051234  0.61793538  0.38875752     0.42800
H1694       H  0.99315554  0.59368242  0.03749135     0.43200
O1695       O  0.56218247  0.92520840  0.10417620    -0.75700
O1696       O  0.55580557  0.92443349  0.15731906    -0.54600
C1697       C  0.56716002  0.91594010  0.12641551     0.78000
O1698       O  0.58803060  0.61616310  0.14843311    -0.60300
O1699       O  0.52704590  0.58740515  0.13086970    -0.53300
C1700       C  0.56541798  0.61768026  0.13532388     0.70000
O1701       O  0.62475344  0.56667461  0.19681820    -0.74900
O1702       O  0.59358533  0.00497175  0.20718104    -0.55400
C1703       C  0.62386945  0.54147484  0.20817684     0.76000
O1704       O  0.52061491  0.97345545  0.05906262    -0.60000
O1705       O  0.98766311  0.50839423  0.08459817    -0.53100
C1706       C  0.00340024  0.99002623  0.05879773     0.72600
Zr1707     Zr  0.52951434  0.95716812  0.10252669     2.54700
O1708       O  0.59518343  0.98468147  0.06573645    -0.80600
O1709       O  0.98502447  0.88368502  0.07075817    -0.94000
Zr1710     Zr  0.58017598  0.56559093  0.17108991     2.64700
O1711       O  0.64643203  0.59031765  0.13513966    -0.99000
O1712       O  0.61205963  0.63406077  0.21023261    -0.81000
O1713       O  0.56765974  0.99854797  0.14835465    -0.84400
O1714       O  0.54376070  0.52547847  0.12450466    -2.19100
O1715       O  0.87611264  0.91347311  0.14097852    -0.67800
O1716       O  0.90876720  0.97852209  0.13019971    -0.52300
C1717       C  0.87717947  0.94002062  0.13117896     0.71000
O1718       O  0.97715344  0.49849018  0.27403175    -0.60700
O1719       O  0.51027532  0.96489956  0.24919831    -0.52700
C1720       C  0.98876396  0.97661751  0.27491616     0.72800
O1721       O  0.94650115  0.56010386  0.23093421    -0.72100
O1722       O  0.94975558  0.55704866  0.17737427    -0.50700
C1723       C  0.94002472  0.56759893  0.20831553     0.74200
O1724       O  0.91253656  0.86348446  0.19117330    -0.67400
O1725       O  0.97597552  0.88979801  0.20308365    -0.54600
C1726       C  0.93647818  0.86123509  0.20195581     0.72600
Zr1727     Zr  0.92023942  0.91149358  0.16512739     2.77500
O1728       O  0.85408350  0.88429096  0.20137794    -0.98100
O1729       O  0.88756399  0.84343623  0.12553216    -0.79000
Zr1730     Zr  0.97598949  0.52452078  0.23257085     2.70100
O1731       O  0.91109258  0.00335186  0.27019856    -0.80200
O1732       O  0.51045835  0.58629567  0.27145778    -0.99300
Zr1733     Zr  0.52399340  0.96087250  0.19106058     2.21500
Zr1734     Zr  0.97900773  0.51825437  0.14342741     2.11100
O1735       O  0.93530721  0.98074602  0.18546510    -2.48000
O1736       O  0.95775805  0.95217746  0.21108406    -0.80000
O1737       O  0.96164366  0.94685843  0.12103669    -0.72200
O1738       O  0.53839958  0.52958297  0.21473946    -2.33200
O1739       O  0.98435698  0.91777174  0.14728645    -2.29400
O1740       O  0.51596908  0.55894317  0.18906620    -0.74000
H1741       H  0.55967235  0.54079445  0.10704436     0.78000
H1742       H  0.55330929  0.54401691  0.23359983     0.79100
H1743       H  0.90948349  0.97861766  0.19135702     0.81300
H1744       H  0.97909047  0.88991570  0.14062381     0.79000
H1745       H  0.59849308  0.62679746  0.23201575     0.42000
H1746       H  0.52190692  0.60912841  0.26033066     0.41000
H1747       H  0.88813627  0.97653771  0.25822676     0.40600
H1748       H  0.84918909  0.90667071  0.20761556     0.38600
H1749       H  0.89775268  0.85121918  0.10397567     0.41700
H1750       H  0.00582616  0.88047862  0.05356243     0.36500
H1751       H  0.61678430  0.00892702  0.08013685     0.42600
H1752       H  0.64123843  0.59070864  0.11490804     0.39000
H1753       H  0.83258099  0.86019016  0.18684701     0.43900
H1754       H  0.47042553  0.88479045  0.05962927     0.42700
H1755       H  0.66547466  0.62081878  0.14554639     0.42800
H1756       H  0.01977798  0.58442154  0.28797536     0.43200
C1757       C  0.62875066  0.67895955  0.11242021    -0.09600
C1758       C  0.58576098  0.65684437  0.12402542     0.06600
C1759       C  0.56376477  0.67296530  0.12476142    -0.03300
C1760       C  0.58529830  0.71125849  0.11516615    -0.07800
C1761       C  0.62888001  0.73491438  0.10541605     0.05700
C1762       C  0.65038465  0.71736449  0.10295100    -0.02800
Br1763     Br  0.70876135  0.74252655  0.08624868    -0.02500
H1764       H  0.64582223  0.66627130  0.11071985     0.09600
H1765       H  0.56778113  0.72329121  0.11673830     0.07700
Br1766     Br  0.50531254  0.64691499  0.14140426    -0.02900
C1767       C  0.78402102  0.86760155  0.08586233    -0.09600
C1768       C  0.75720385  0.87892965  0.10651001     0.06600
C1769       C  0.77272086  0.91544427  0.13251981    -0.03300
C1770       C  0.81368960  0.93772930  0.13905600    -0.07800
C1771       C  0.83909199  0.92403285  0.11978846     0.05700
C1772       C  0.82496862  0.89041481  0.09214655    -0.02800
Br1773     Br  0.86110393  0.87491755  0.06299000    -0.02500
H1774       H  0.77264659  0.84009668  0.06546626     0.09600
H1775       H  0.82470724  0.96388409  0.16039006     0.07700
Br1776     Br  0.73807849  0.93296264  0.16231094    -0.02900
C1777       C  0.64325648  0.88549550  0.08981230    -0.09600
C1778       C  0.62396952  0.85057560  0.10374075     0.06600
C1779       C  0.58440089  0.83569428  0.12299073    -0.03300
C1780       C  0.56595756  0.85673574  0.12884915    -0.07800
C1781       C  0.58607866  0.89256533  0.11606972     0.05700
C1782       C  0.62474601  0.90664926  0.09590718    -0.02800
Br1783     Br  0.65584268  0.95721047  0.07927938    -0.02500
H1784       H  0.67373542  0.89750911  0.07518288     0.09600
H1785       H  0.53619305  0.84587827  0.14446433     0.07700
Br1786     Br  0.55547288  0.79039566  0.14537574    -0.02900
C1787       C  0.53323024  0.65723370  0.38585194    -0.09600
C1788       C  0.54690880  0.63084216  0.36891415     0.06600
C1789       C  0.57890971  0.64229359  0.34228596    -0.03300
C1790       C  0.59881638  0.68114857  0.33432434    -0.07800
C1791       C  0.58784797  0.70946458  0.35292522     0.05700
C1792       C  0.55379916  0.69677366  0.37831391    -0.02800
Br1793     Br  0.53817559  0.73428409  0.40657361    -0.02500
H1794       H  0.50870010  0.64856887  0.40651866     0.09600
H1795       H  0.62490882  0.69054496  0.31481041     0.07700
Br1796     Br  0.59819190  0.60698735  0.31732131    -0.02900
C1797       C  0.76459280  0.87024004  0.34262344    -0.09600
C1798       C  0.73048097  0.83676841  0.35790056     0.06600
C1799       C  0.73784046  0.82484794  0.37982152    -0.03300
C1800       C  0.77855438  0.84554392  0.38539056    -0.07800
C1801       C  0.81289205  0.87920970  0.37039714     0.05700
C1802       C  0.80563764  0.89153172  0.34862125    -0.02800
Br1803     Br  0.84981324  0.93606392  0.32564060    -0.02500
H1804       H  0.75930761  0.87977156  0.32583336     0.09600
H1805       H  0.78300509  0.83612436  0.40282655     0.07700
Br1806     Br  0.69402162  0.78400283  0.40609622    -0.02900
C1807       C  0.64039497  0.88694587  0.36943112    -0.09600
C1808       C  0.62079749  0.84555154  0.34946589     0.06600
C1809       C  0.58644352  0.82924543  0.33435305    -0.03300
C1810       C  0.57032864  0.85297757  0.34157011    -0.07800
C1811       C  0.58782630  0.89273304  0.36378192     0.05700
C1812       C  0.62411558  0.91043313  0.37671166    -0.02800
Br1813     Br  0.65298705  0.96666223  0.40396767    -0.02500
H1814       H  0.66737624  0.90044459  0.38070990     0.09600
H1815       H  0.54290110  0.83949269  0.33089416     0.07700
Br1816     Br  0.56047521  0.77521467  0.30356001    -0.02900
C1817       C  0.90426778  0.64083563  0.24980014    -0.09600
C1818       C  0.87243743  0.62238146  0.23108330     0.06600
C1819       C  0.86395613  0.58694093  0.20488476    -0.03300
C1820       C  0.88589581  0.56942685  0.19868119    -0.07800
C1821       C  0.91725385  0.58717666  0.21760715     0.05700
C1822       C  0.92683548  0.62356126  0.24318693    -0.02800
Br1823     Br  0.97271632  0.65312646  0.26747863    -0.02500
H1824       H  0.91204202  0.66914057  0.26918414     0.09600
H1825       H  0.87892461  0.54210870  0.17839635     0.07700
Br1826     Br  0.82628687  0.56399202  0.17437712    -0.02900
C1827       C  0.93596416  0.80026377  0.20015898    -0.09600
C1828       C  0.91744909  0.82247249  0.21307177     0.06600
C1829       C  0.88068597  0.80664610  0.23561457    -0.03300
C1830       C  0.86166146  0.76774561  0.24331151    -0.07800
C1831       C  0.87890294  0.74421020  0.22919706     0.05700
C1832       C  0.91712124  0.76137055  0.20786750    -0.02800
Br1833     Br  0.94379496  0.73237364  0.18597935    -0.02500
H1834       H  0.96445620  0.81245540  0.18295548     0.09600
H1835       H  0.83298127  0.75566942  0.26029436     0.07700
Br1836     Br  0.85633815  0.83780764  0.25776371    -0.02900
C1837       C  0.67903099  0.60075232  0.24286496    -0.09600
C1838       C  0.66178862  0.56016261  0.22182644     0.06600
C1839       C  0.68387998  0.54154513  0.21143816    -0.03300
C1840       C  0.72444274  0.56553065  0.21961865    -0.07800
C1841       C  0.74313697  0.60772576  0.23840832     0.05700
C1842       C  0.71899858  0.62428560  0.25163009    -0.02800
Br1843     Br  0.73850621  0.67860366  0.28185449    -0.02500
H1844       H  0.66173892  0.61484920  0.25172069     0.09600
H1845       H  0.74220951  0.55195675  0.20961908     0.07700
Br1846     Br  0.66561145  0.99169615  0.17371420    -0.02900
C1847       C  0.84007220  0.56466343  0.45884070    -0.09600
C1848       C  0.85806508  0.60496719  0.48043966     0.06600
C1849       C  0.90923902  0.64237792  0.99998683    -0.03300
C1850       C  0.92671962  0.61960974  0.99165786    -0.07800
C1851       C  0.89147238  0.55792703  0.46561900     0.05700
C1852       C  0.85661190  0.54134093  0.45114362    -0.02800
Br1853     Br  0.82975473  0.48675760  0.42108137    -0.02500
H1854       H  0.81363111  0.55161395  0.44706511     0.09600
H1855       H  0.95481998  0.63370509  0.00167108     0.07700
Br1856     Br  0.93461603  0.69588598  0.03141969    -0.02900
C1857       C  0.88156335  0.80054208  0.49007447    -0.09600
C1858       C  0.92099640  0.81693924  0.47112249     0.06600
C1859       C  0.94116718  0.79701897  0.46520954    -0.03500
C1860       C  0.91926785  0.75824957  0.47459416    -0.07800
C1861       C  0.87804698  0.73986472  0.49084846     0.05700
C1862       C  0.87668266  0.78313195  0.00360654    -0.02800
Br1863     Br  0.82368171  0.76631783  0.03058463    -0.02500
H1864       H  0.88492093  0.83800467  0.99942531     0.09600
H1865       H  0.93354653  0.74124601  0.46729275     0.07700
Br1866     Br  0.99650644  0.81862526  0.44175466    -0.02900
C1867       C  0.68163435  0.56140988  0.97944510    -0.09600
C1868       C  0.65826689  0.56854769  0.46739144     0.06600
C1869       C  0.68993334  0.61249435  0.46832878    -0.03300
C1870       C  0.72945103  0.63076735  0.47521989    -0.07800
C1871       C  0.73906667  0.60707956  0.48206600     0.05700
C1872       C  0.72139975  0.58142608  0.98774905    -0.02800
Br1873     Br  0.72858439  0.54840629  0.00296083    -0.02500
H1874       H  0.65755643  0.52854237  0.98137479     0.09600
H1875       H  0.75311904  0.66413497  0.47460229     0.07700
Br1876     Br  0.68280131  0.65123650  0.46162147    -0.02900
C1877       C  0.84079655  0.62921057  0.48566963     0.79800
N1878       N  0.86668764  0.67234812  0.48869986    -0.78500
C1879       C  0.85080605  0.69402002  0.49156445     0.82200
N1880       N  0.80949048  0.67193546  0.49008051    -0.78500
C1881       C  0.78322479  0.62912459  0.48665160     0.82300
N1882       N  0.79922195  0.60772483  0.48410777    -0.80200
C1883       C  0.85680954  0.64793294  0.73856166     0.79800
N1884       N  0.87999041  0.69041107  0.74015947    -0.78500
C1885       C  0.86149078  0.70877132  0.74115538     0.82200
N1886       N  0.81937755  0.68414705  0.74109819    -0.78500
C1887       C  0.79566845  0.64179243  0.74020163     0.82300
N1888       N  0.81476885  0.62354786  0.73808683    -0.80200
C1889       C  0.65155513  0.83390208  0.84443406     0.79800
N1890       N  0.69236145  0.85522281  0.84822400    -0.78500
C1891       C  0.70639119  0.83415045  0.85063839     0.82200
N1892       N  0.67944014  0.79166836  0.84936595    -0.78500
C1893       C  0.63861443  0.77013500  0.84612594     0.82300
N1894       N  0.62457032  0.79140711  0.84400753    -0.80200
C1895       C  0.65449487  0.83758664  0.59732451     0.79800
N1896       N  0.63366062  0.79564376  0.59669626    -0.78500
C1897       C  0.65486535  0.77951563  0.59454817     0.82200
N1898       N  0.69712610  0.80634139  0.59383962    -0.78500
C1899       C  0.71837690  0.84828999  0.59438655     0.82300
N1900       N  0.69686380  0.86377946  0.59604905    -0.80200
O1901       O  0.56441559  0.92612551  0.85276054    -0.75700
O1902       O  0.56787781  0.93480213  0.90603882    -0.54600
C1903       C  0.57560470  0.92271245  0.87492817     0.78000
O1904       O  0.57738482  0.61254910  0.89098928    -0.60300
O1905       O  0.51211938  0.57920588  0.87835356    -0.53300
C1906       C  0.55101844  0.61044750  0.87941962     0.70000
O1907       O  0.62837768  0.57897524  0.94195430    -0.74900
O1908       O  0.60435364  0.01742263  0.95399478    -0.55400
C1909       C  0.63211167  0.55923804  0.95587743     0.76000
O1910       O  0.51615438  0.97001170  0.80909029    -0.60000
O1911       O  0.97832441  0.50097771  0.83464115    -0.53100
C1912       C  0.99694757  0.98437465  0.80891012     0.72600
Zr1913     Zr  0.52759001  0.95450750  0.85180138     2.54700
O1914       O  0.58889428  0.97669471  0.81036063    -0.80600
O1915       O  0.98711750  0.88357201  0.82052976    -0.94000
Zr1916     Zr  0.57742500  0.57022859  0.91786074     2.64700
O1917       O  0.64441411  0.60217414  0.88293332    -0.99000
O1918       O  0.60020014  0.63794454  0.95733017    -0.81000
O1919       O  0.57005295  0.00162029  0.89507608    -0.84400
O1920       O  0.53914660  0.52457623  0.87262915    -2.19100
O1921       O  0.87468417  0.90154311  0.89736362    -0.67800
O1922       O  0.90099684  0.96044933  0.87992280    -0.52300
C1923       C  0.87141820  0.92250976  0.88428775     0.71000
O1924       O  0.97471073  0.49498976  0.52375789    -0.60700
O1925       O  0.52398755  0.97808817  0.99953340    -0.52700
C1926       C  0.99411395  0.98003626  0.52508651     0.72800
O1927       O  0.94251098  0.55551495  0.98073907    -0.72100
O1928       O  0.93640913  0.54477319  0.92771273    -0.50700
C1929       C  0.93056974  0.55843508  0.95880014     0.74200
O1930       O  0.92909767  0.87122526  0.94860897    -0.67400
O1931       O  0.99501792  0.90247836  0.95834585    -0.54600
C1932       C  0.95559069  0.87231555  0.95914110     0.72600
Zr1933     Zr  0.92672266  0.91128655  0.92096751     2.77500
O1934       O  0.86507201  0.88687819  0.96212337    -0.98100
O1935       O  0.89568382  0.84002127  0.88560567    -0.79000
Zr1936     Zr  0.97701741  0.52479221  0.98186009     2.70100
O1937       O  0.89262202  0.97185155  0.51612513    -0.80200
O1938       O  0.48553382  0.56949364  0.51963456    -0.99300
Zr1939     Zr  0.53317961  0.96838087  0.94070055     2.21500
Zr1940     Zr  0.97024639  0.51023597  0.89352893     2.11100
O1941       O  0.93637667  0.97816738  0.93835570    -2.48000
O1942       O  0.96846769  0.95870808  0.96395282    -0.80000
O1943       O  0.96029636  0.94201312  0.87422404    -0.72200
O1944       O  0.54161795  0.53681816  0.96309846    -2.33200
O1945       O  0.99246853  0.92193256  0.90017699    -2.29400
O1946       O  0.51045346  0.55706235  0.93637981    -0.74000
H1947       H  0.55322548  0.53904357  0.85471916     0.78000
H1948       H  0.55758144  0.55405137  0.98149341     0.79100
H1949       H  0.90946717  0.97387358  0.94526272     0.81300
H1950       H  0.98898580  0.89502359  0.89445293     0.79000
H1951       H  0.59864140  0.63266125  0.97809098     0.42000
H1952       H  0.50108381  0.59154272  0.50660950     0.41000
H1953       H  0.87536209  0.94149105  0.50470972     0.40600
H1954       H  0.85592873  0.90517565  0.96513955     0.38600
H1955       H  0.89508126  0.84338227  0.86472165     0.41700
H1956       H  0.96420402  0.88148855  0.81525295     0.36500
H1957       H  0.61024023  0.00654703  0.82041823     0.42600
H1958       H  0.63712680  0.59504769  0.86102077     0.39000
H1959       H  0.84312479  0.85830319  0.95081266     0.43900
H1960       H  0.46425668  0.88070646  0.81281947     0.42700
H1961       H  0.65800418  0.63333550  0.89066358     0.42800
H1962       H  0.96434678  0.57042864  0.53368236     0.43200
O1963       O  0.56226125  0.92446332  0.60549200    -0.75700
O1964       O  0.56222774  0.93072509  0.65904008    -0.54600
C1965       C  0.57095601  0.91906540  0.62807569     0.78000
O1966       O  0.59101572  0.61797835  0.64254085    -0.60300
O1967       O  0.52885027  0.58802765  0.62628702    -0.53300
C1968       C  0.56747720  0.61854827  0.62969276     0.70000
O1969       O  0.63293636  0.57269947  0.69132419    -0.74900
O1970       O  0.60125550  0.01248288  0.70653642    -0.55400
C1971       C  0.63222975  0.54918571  0.70465520     0.76000
O1972       O  0.51116362  0.96394480  0.55961490    -0.60000
O1973       O  0.98575849  0.50523987  0.58364439    -0.53100
C1974       C  0.99733133  0.98254631  0.55818056     0.72600
Zr1975     Zr  0.52732520  0.95426591  0.60313548     2.54700
O1976       O  0.58761337  0.97621089  0.56082376    -0.80600
O1977       O  0.99467953  0.88536009  0.56779373    -0.94000
Zr1978     Zr  0.58695861  0.56976831  0.66543101     2.64700
O1979       O  0.64940027  0.58975141  0.62509033    -0.99000
O1980       O  0.62623494  0.64088763  0.70013210    -0.81000
O1981       O  0.57118896  0.99910464  0.64550262    -0.84400
O1982       O  0.54718245  0.52655380  0.62064481    -2.19100
O1983       O  0.88074725  0.91142480  0.63903730    -0.67800
O1984       O  0.91130118  0.97592286  0.62820754    -0.52300
C1985       C  0.88099163  0.93668563  0.62812733     0.71000
O1986       O  0.98596645  0.50967381  0.77475739    -0.60700
O1987       O  0.52126957  0.97660142  0.75024951    -0.52700
C1988       C  0.99960782  0.98768094  0.77593508     0.72800
O1989       O  0.95482118  0.56709668  0.72933247    -0.72100
O1990       O  0.95590087  0.56179301  0.67588312    -0.50700
C1991       C  0.94706769  0.57345947  0.70686811     0.74200
O1992       O  0.91897124  0.86897375  0.69506399    -0.67400
O1993       O  0.98270575  0.89678473  0.70733442    -0.54600
C1994       C  0.94314472  0.86801132  0.70677553     0.72600
Zr1995     Zr  0.92503665  0.91496835  0.66783459     2.77500
O1996       O  0.86307747  0.89684884  0.70833422    -0.98100
O1997       O  0.88845537  0.84243882  0.63456774    -0.79000
Zr1998     Zr  0.98501577  0.53274295  0.73129114     2.70100
O1999       O  0.92099802  0.01269936  0.77149861    -0.80200
O2000       O  0.52570110  0.59895301  0.76520825    -0.99300
Zr2001     Zr  0.53108771  0.96812600  0.69192956     2.21500
Zr2002     Zr  0.98428660  0.52184252  0.64222895     2.11100
O2003       O  0.94018429  0.98429710  0.68624798    -2.48000
O2004       O  0.96501428  0.95800290  0.71229865    -0.80000
O2005       O  0.96476637  0.94802455  0.62251675    -0.72200
O2006       O  0.54763825  0.53792478  0.71147771    -2.33200
O2007       O  0.98896817  0.92096857  0.64869742    -2.29400
O2008       O  0.52337336  0.56451299  0.68476919    -0.74000
H2009       H  0.56172770  0.54019960  0.60222442     0.78000
H2010       H  0.56374310  0.55382465  0.72974887     0.79100
H2011       H  0.91433603  0.98214028  0.69233950     0.81300
H2012       H  0.98344238  0.89306363  0.64276614     0.79000
H2013       H  0.60963177  0.63803984  0.72213628     0.42000
H2014       H  0.53105452  0.61994220  0.75500725     0.41000
H2015       H  0.89657154  0.98981087  0.75931487     0.40600
H2016       H  0.85519687  0.91504407  0.70816999     0.38600
H2017       H  0.91031123  0.84180516  0.61700974     0.41700
H2018       H  0.96894404  0.87990760  0.56435437     0.36500
H2019       H  0.61164675  0.00115498  0.57276205     0.42600
H2020       H  0.63938519  0.56645319  0.60525753     0.39000
H2021       H  0.84068923  0.86758478  0.69829757     0.43900
H2022       H  0.47878551  0.86302848  0.58427592     0.42700
H2023       H  0.65676086  0.61474671  0.61905846     0.42800
H2024       H  0.01281756  0.60087949  0.78809238     0.43200
C2025       C  0.62957947  0.67704149  0.60355492    -0.09600
C2026       C  0.58737552  0.65687920  0.61730643     0.06600
C2027       C  0.56630870  0.67465303  0.61965659    -0.03300
C2028       C  0.58840297  0.71324635  0.61018239    -0.07800
C2029       C  0.63156503  0.73512187  0.59845503     0.05700
C2030       C  0.65167775  0.71541783  0.59393723    -0.02800
Br2031     Br  0.70886431  0.73775496  0.57472825    -0.02500
H2032       H  0.64579415  0.66296203  0.60051138     0.09600
H2033       H  0.57189629  0.72710867  0.61360483     0.07700
Br2034     Br  0.50871747  0.65042295  0.63840429    -0.02900
C2035       C  0.78792798  0.86115814  0.58132062    -0.09600
C2036       C  0.76352266  0.87696313  0.59777749     0.06600
C2037       C  0.78132076  0.91670012  0.62072766    -0.03300
C2038       C  0.82119445  0.93744380  0.62885659    -0.07800
C2039       C  0.84337466  0.91904566  0.61472951     0.05700
C2040       C  0.82761718  0.88201070  0.58960275    -0.02800
Br2041     Br  0.85963020  0.85921637  0.56626823    -0.02500
H2042       H  0.77537705  0.83150783  0.56291102     0.09600
H2043       H  0.83370336  0.96654526  0.64783920     0.07700
Br2044     Br  0.75150049  0.94199120  0.64499283    -0.02900
C2045       C  0.64303798  0.88320880  0.58450749    -0.09600
C2046       C  0.63123144  0.85599230  0.60380614     0.06600
C2047       C  0.60007503  0.85009785  0.63102469    -0.03300
C2048       C  0.58026070  0.87006658  0.63775101    -0.07800
C2049       C  0.59164030  0.89708485  0.61834658     0.05700
C2050       C  0.62390985  0.90412796  0.59173230    -0.02800
Br2051     Br  0.64672677  0.94545134  0.56684583    -0.02500
H2052       H  0.66809508  0.88914760  0.56428014     0.09600
H2053       H  0.55641052  0.86519847  0.65884190     0.07700
Br2054     Br  0.58666284  0.81932574  0.66209704    -0.02900
C2055       C  0.55452142  0.67404624  0.88335773    -0.09600
C2056       C  0.56730065  0.64692450  0.86645967     0.06600
C2057       C  0.59932564  0.65789288  0.83976289    -0.03300
C2058       C  0.62034622  0.69717538  0.83190094    -0.07800
C2059       C  0.60953559  0.72573026  0.85010956     0.05700
C2060       C  0.57554620  0.71347786  0.87554510    -0.02800
Br2061     Br  0.56027153  0.75142533  0.90337365    -0.02500
H2062       H  0.53003403  0.66583268  0.90408110     0.09600
H2063       H  0.64636823  0.70621420  0.81232752     0.07700
Br2064     Br  0.61576266  0.62042695  0.81382570    -0.02900
C2065       C  0.78380143  0.88762091  0.84160228    -0.09600
C2066       C  0.74864305  0.85787578  0.85946300     0.06600
C2067       C  0.75423509  0.85113411  0.88595425    -0.03300
C2068       C  0.79442899  0.87244901  0.89319735    -0.07800
C2069       C  0.82989744  0.90138913  0.87494311     0.05700
C2070       C  0.82433013  0.90935452  0.84904756    -0.02800
Br2071     Br  0.87038567  0.94755409  0.82191563    -0.02500
H2072       H  0.77977588  0.89329394  0.82138044     0.09600
H2073       H  0.79782193  0.86687792  0.91382338     0.07700
Br2074     Br  0.70827104  0.81574811  0.91495720    -0.02900
C2075       C  0.64951036  0.89646778  0.87235599    -0.09600
C2076       C  0.63506833  0.85843616  0.84823350     0.06600
C2077       C  0.60344128  0.84371031  0.83060523    -0.03300
C2078       C  0.58543570  0.86598978  0.83862834    -0.07800
C2079       C  0.59837615  0.90275646  0.86419646     0.05700
C2080       C  0.63163895  0.91857137  0.88040853    -0.02800
Br2081     Br  0.65512561  0.97077377  0.91328615    -0.02500
H2082       H  0.67404046  0.90848376  0.88595099     0.09600
H2083       H  0.56040944  0.85382031  0.82553679     0.07700
Br2084     Br  0.58478490  0.79443882  0.79486914    -0.02900
C2085       C  0.90150979  0.63763393  0.75466592    -0.09600
C2086       C  0.87818464  0.62763127  0.73157614     0.06600
C2087       C  0.87779711  0.60041722  0.70093169    -0.03300
C2088       C  0.90058051  0.58360230  0.69375492    -0.07800
C2089       C  0.92421525  0.59329617  0.71663325     0.05700
C2090       C  0.92414032  0.62037521  0.74770155    -0.02800
Br2091     Br  0.95495350  0.63658938  0.78136461    -0.02500
H2092       H  0.90215231  0.65902095  0.77817371     0.09600
H2093       H  0.89957471  0.56259147  0.66994374     0.07700
Br2094     Br  0.84881368  0.58709471  0.66706009    -0.02900
C2095       C  0.94549780  0.81117210  0.71063989    -0.09600
C2096       C  0.92440312  0.83046360  0.71959168     0.06600
C2097       C  0.88545111  0.81265628  0.73959425    -0.03300
C2098       C  0.86703522  0.77450399  0.74824803    -0.07800
C2099       C  0.88659672  0.75325493  0.73727272     0.05700
C2100       C  0.92716926  0.77294223  0.71919104    -0.02800
Br2101     Br  0.95851731  0.74860296  0.70259588    -0.02500
H2102       H  0.97572209  0.82492752  0.69555772     0.09600
H2103       H  0.83654965  0.76072759  0.76289585     0.07700
Br2104     Br  0.85630325  0.83928333  0.75641428    -0.02900
C2105       C  0.68765050  0.60911746  0.73889636    -0.09600
C2106       C  0.67056706  0.56858124  0.71790467     0.06600
C2107       C  0.69238439  0.54975269  0.70789377    -0.03300
C2108       C  0.73246370  0.57325910  0.71682908    -0.07800
C2109       C  0.75076243  0.61509439  0.73629693     0.05700
C2110       C  0.72687085  0.63199562  0.74880513    -0.02800
Br2111     Br  0.74507267  0.68538219  0.78017877    -0.02500
H2112       H  0.67054859  0.62337098  0.74724719     0.09600
H2113       H  0.75007310  0.55949113  0.70717461     0.07700
Br2114     Br  0.66909650  0.99338116  0.68112476    -0.02900
C2115       C  0.85453891  0.58372913  0.96584695    -0.09600
C2116       C  0.87341006  0.62492630  0.98618110     0.06600
C2117       C  0.89240269  0.62113059  0.49558076    -0.03300
C2118       C  0.90844529  0.59729026  0.48831918    -0.07800
C2119       C  0.90898391  0.57949841  0.96986775     0.05700
C2120       C  0.87183734  0.56102519  0.95774766    -0.02800
Br2121     Br  0.84233117  0.50421223  0.93108483    -0.02500
H2122       H  0.82658002  0.56927620  0.95547809     0.09600
H2123       H  0.93527514  0.61027245  0.49956705     0.07700
Br2124     Br  0.91842468  0.67485983  0.52671209    -0.02900
C2125       C  0.89902277  0.82107969  0.99332416    -0.09600
C2126       C  0.93798797  0.83627225  0.97374616     0.06600
C2127       C  0.95620052  0.81409689  0.96635880    -0.03500
C2128       C  0.93351413  0.77549686  0.97623703    -0.07800
C2129       C  0.89277197  0.75847590  0.99338862     0.05700
C2130       C  0.86085104  0.76346659  0.50106491    -0.02800
Br2131     Br  0.80928061  0.74701026  0.53015011    -0.02500
H2132       H  0.86638231  0.81641416  0.49597231     0.09600
H2133       H  0.94656541  0.75724069  0.96826223     0.07700
Br2134     Br  0.00899234  0.83149607  0.93926018    -0.02900
C2135       C  0.66675219  0.54552509  0.47671036    -0.09600
C2136       C  0.67298828  0.58289423  0.96820424     0.06600
C2137       C  0.70448814  0.62680916  0.96832116    -0.03300
C2138       C  0.74379583  0.64643044  0.97646622    -0.07800
C2139       C  0.75360566  0.62430404  0.98530496     0.05700
C2140       C  0.70659704  0.56406789  0.48375464    -0.02800
Br2141     Br  0.71334996  0.52865941  0.49608141    -0.02500
H2142       H  0.64248888  0.51243333  0.47792304     0.09600
H2143       H  0.76724506  0.67961727  0.97517075     0.07700
Br2144     Br  0.69772882  0.66411641  0.95867973    -0.02900
loop_ 
_geom_bond_atom_site_label_1 
_geom_bond_atom_site_label_2 
_geom_bond_distance 
_geom_bond_site_symmetry_2 
_ccdc_geom_bond_type 
C1            N2   1.366       .  A
C1            N6   1.361       .  A
C1          C508   1.478       .  S
N2            C3   1.362       .  A
C3            N4   1.351       .  A
C3          C521   1.488       .  S
N4            C5   1.350       .  A
C5            N6   1.351       .  A
C5          C531   1.471       .  S
C7            N8   1.356       .  A
C7           N12   1.358       .  A
C7          C210   1.461       .  S
N8            C9   1.354       .  A
C9           N10   1.355       .  A
C9          C223   1.475       .  S
N10          C11   1.354       .  A
C11          N12   1.356       .  A
C11         C233   1.479       .  S
C13          N14   1.360       .  A
C13          N18   1.360       .  A
C13         C200   1.471       .  S
N14          C15   1.353       .  A
C15          N16   1.351       .  A
C15         C190   1.476       .  S
N16          C17   1.356       .  A
C17          N18   1.356       .  A
C17         C183   1.474       .  S
C19          N20   1.359       .  A
C19          N24   1.357       .  A
C19         C170   1.476       .  S
N20          C21   1.360       .  A
C21          N22   1.353       .  A
C21         C153   1.488       .  S
N22          C23   1.353       .  A
C23          N24   1.352       .  A
C23         C160   1.466       .  S
O25         Zr37   2.432       .  S
O25          C27   1.286       .  A
O26         Zr63   2.417       .  S
O26          C27   1.286       .  A
C27         C203   1.467       .  S
O28         Zr40   2.434       .  S
O28          C30   1.287       .  A
O29       Zr1136   2.422   1_545  S
O29          C30   1.285   1_655  A
C30         C180   1.468       .  S
O31         Zr40   2.414       .  S
O31          C33   1.281       .  A
O32         Zr63   2.430       .  S
O32         C569   1.288       .  A
C33         C260   1.486       .  S
C33         O568   1.288       .  A
O34         Zr37   2.455       .  S
O34        C1108   1.291   1_455  A
O35         Zr64   2.416       .  S
O35         C572   1.284       .  A
C36         C112   1.466       .  S
C36        O1106   1.289       .  A
C36         O571   1.285       .  A
Zr37         O38   2.434       .  S
Zr37       O1111   2.436   1_455  S
Zr37         O43   2.383       .  S
Zr37        O580   2.359       .  S
Zr37       O1139   2.369   1_455  S
Zr37       O1141   2.377   1_455  S
O38          H81   0.990       .  S
O39       Zr1109   2.433       .  S
O39          H80   0.990       .  S
O39        H1156   0.990       .  S
Zr40         O41   2.433       .  S
Zr40         O42   2.436       .  S
Zr40         O44   2.356       .  S
Zr40         O68   2.366       .  S
Zr40         O70   2.365   1_455  S
Zr40        O579   2.373   1_545  S
O41          H82   0.990       .  S
O41          H85   0.990       .  S
O42          H75   0.990       .  S
O43         Zr63   2.383       .  S
O43        Zr576   2.375       .  S
O44        Zr573   2.366   1_545  S
O44       Zr1136   2.376   1_445  S
O44          H71   0.965       .  S
O45         Zr57   2.432       .  S
O45          C47   1.287       .  A
O46        Zr600   2.419       .  S
O46          C47   1.284       .  A
C47         C193   1.486       .  S
O48        Zr328   2.438   1_554  S
O48         C586   1.288   1_545  A
O49         Zr63   2.416       .  S
O49        C1390   1.285   1_455  A
C50          C98   1.469       .  S
C50         O584   1.289       .  A
C50        O1389   1.285       .  A
O51         Zr60   2.445       .  S
O51          C53   1.288       .  A
O52         Zr64   2.403   1_545  S
O52          C53   1.282       .  A
C53         C243   1.471       .  S
O54         Zr57   2.431       .  S
O54          C56   1.287       .  A
O55       Zr1135   2.421       .  S
O55          C56   1.284       .  A
C56         C250   1.473       .  S
Zr57         O58   2.438       .  S
Zr57         O59   2.435       .  S
Zr57         O65   2.369       .  S
Zr57         O66   2.367       .  S
Zr57         O69   2.365       .  S
Zr57         O67   2.373       .  S
O58          H78   0.990       .  S
O58          H83   0.990       .  S
O59          H79   0.990       .  S
Zr60        O316   2.448   1_545  S
Zr60        O865   2.434   1_545  S
Zr60       O1402   2.436       .  S
Zr60        O602   2.371   1_545  S
Zr60        O601   2.372   1_545  S
Zr60       O1142   2.375       .  S
Zr60       O1140   2.366       .  S
O61        Zr864   2.434   1_554  S
O61          H77   0.990       .  S
O62       Zr1400   2.437   1_454  S
O62          H76   0.990       .  S
O62        H1158   0.990       .  S
Zr63       O1127   2.426   1_455  S
Zr63       O1138   2.377   1_455  S
Zr63        O604   2.380       .  S
Zr63       O1141   2.385   1_455  S
Zr64       O1101   2.417   1_565  S
Zr64        O582   2.419       .  S
Zr64       O1116   2.380   1_565  S
Zr64        O601   2.385       .  S
Zr64        O603   2.380       .  S
Zr64       O1142   2.382   1_565  S
O65        Zr596   2.370       .  S
O65        Zr600   2.382       .  S
O65          H73   0.966       .  S
O66        Zr596   2.368       .  S
O66       Zr1135   2.378       .  S
O67       Zr1109   2.372       .  S
O67        Zr600   2.380       .  S
O68       Zr1132   2.366   1_455  S
O68        Zr599   2.382   1_545  S
O68          H72   0.966       .  S
O69       Zr1109   2.367       .  S
O69       Zr1135   2.381       .  S
O69          H74   0.966       .  S
O70       Zr1132   2.375       .  S
O70       Zr1136   2.378   1_545  S
H84        O1111   0.990       .  S
H86        O1134   0.990       .  S
O87         Zr99   2.437       .  S
O87          C89   1.285       .  A
O88        Zr125   2.399       .  S
O88          C89   1.282       .  A
C89         C173   1.461       .  S
O90        Zr102   2.441       .  S
O90          C92   1.288       .  A
O91       Zr1198   2.411   1_455  S
O91          C92   1.282       .  A
C92         C150   1.481       .  S
O93        Zr102   2.417       .  S
O93          C95   1.284       .  A
O94        Zr125   2.417       .  S
O94         C631   1.284       .  A
C95         C230   1.467       .  S
C95         O630   1.286       .  A
O96         Zr99   2.441       .  S
O96        C1170   1.288       .  A
O97        Zr126   2.416       .  S
O97         C634   1.285   1_545  A
C98        O1168   1.288       .  A
C98         O633   1.285       .  A
Zr99        O100   2.433       .  S
Zr99       O1173   2.437   1_455  S
Zr99        O105   2.375       .  S
Zr99        O642   2.372       .  S
Zr99       O1201   2.373   1_455  S
Zr99       O1203   2.369   1_455  S
O100        H143   0.990       .  S
O101      Zr1171   2.437       .  S
O101        H142   0.990       .  S
O101       H1218   0.990       .  S
Zr102       O103   2.437       .  S
Zr102       O104   2.434       .  S
Zr102       O106   2.361       .  S
Zr102       O130   2.380       .  S
Zr102       O132   2.369       .  S
Zr102       O641   2.371   1_545  S
O103        H144   0.990       .  S
O103        H147   0.990       .  S
O104        H137   0.990       .  S
O105       Zr125   2.378       .  S
O105       Zr638   2.377       .  S
O106       Zr635   2.373   1_545  S
O106      Zr1198   2.375   1_455  S
O106        H133   0.966       .  S
O107       Zr119   2.435       .  S
O107        C109   1.287       .  A
O108       Zr662   2.403       .  S
O108        C109   1.281       .  A
C109        C163   1.454       .  S
O110       Zr122   2.451   1_565  S
O110        C648   1.290       .  A
O111       Zr125   2.398       .  S
O111       C1184   1.281   1_455  A
C112        O646   1.289       .  A
C112       O1183   1.284       .  A
O113       Zr122   2.440       .  S
O113        C115   1.287       .  A
O114       Zr126   2.398       .  S
O114        C115   1.283       .  A
C115        C213   1.468       .  S
O116       Zr119   2.445       .  S
O116        C118   1.289       .  A
O117      Zr1197   2.400       .  S
O117        C118   1.282       .  A
C118        C220   1.465       .  S
Zr119       O120   2.437       .  S
Zr119       O121   2.436       .  S
Zr119       O127   2.368       .  S
Zr119       O128   2.361       .  S
Zr119       O131   2.374       .  S
Zr119       O129   2.374       .  S
O120        H140   0.990       .  S
O120        H145   0.990       .  S
O121        H141   0.990       .  S
Zr122       O659   2.433   1_545  S
Zr122      O1196   2.435       .  S
Zr122       O664   2.365   1_545  S
Zr122       O663   2.372   1_545  S
Zr122      O1204   2.380       .  S
Zr122      O1202   2.364       .  S
O123       Zr658   2.433       .  S
O123        H139   0.990       .  S
O124      Zr1194   2.437   1_455  S
O124        H138   0.990   1_455  S
O124       H1220   0.990       .  S
Zr125      O1189   2.415   1_455  S
Zr125      O1200   2.375   1_455  S
Zr125       O666   2.385       .  S
Zr125      O1203   2.380   1_455  S
Zr126      O1163   2.417       .  S
Zr126       O644   2.403   1_545  S
Zr126      O1178   2.374       .  S
Zr126       O663   2.384   1_545  S
Zr126       O665   2.381   1_545  S
Zr126      O1204   2.377       .  S
O127       Zr658   2.367       .  S
O127       Zr662   2.383       .  S
O127        H135   0.966       .  S
O128       Zr658   2.366       .  S
O128      Zr1197   2.375       .  S
O129      Zr1171   2.369       .  S
O129       Zr662   2.377       .  S
O130      Zr1194   2.368   1_455  S
O130       Zr661   2.384   1_545  S
O130        H134   0.966       .  S
O131      Zr1171   2.370       .  S
O131      Zr1197   2.383       .  S
O131        H136   0.966       .  S
O132      Zr1194   2.381   1_455  S
O132      Zr1198   2.377   1_455  S
H146       O1173   0.990       .  S
H148       O1196   0.990       .  S
C149        C150   1.404       .  A
C149        C154   1.395       .  A
C149        H156   1.084       .  S
C150        C151   1.413       .  A
C151        C152   1.397       .  A
C151       Br158   1.923       .  S
C152        C153   1.407       .  A
C152        H157   1.081       .  S
C153        C154   1.417       .  A
C154       Br155   1.925       .  S
C159        C160   1.403       .  A
C159        C164   1.392       .  A
C159        H166   1.084       .  S
C160        C161   1.413       .  A
C161        C162   1.397       .  A
C161       Br168   1.921       .  S
C162        C163   1.398       .  A
C162        H167   1.084       .  S
C163        C164   1.399       .  A
C164       Br165   1.915       .  S
C169        C170   1.407       .  A
C169        C174   1.395       .  A
C169        H176   1.083       .  S
C170        C171   1.415       .  A
C171        C172   1.393       .  A
C171       Br178   1.918       .  S
C172        C173   1.398       .  A
C172        H177   1.084       .  S
C173        C174   1.404       .  A
C174       Br175   1.919       .  S
C179        C180   1.403       .  A
C179        C184   1.402       .  A
C179        H186   1.084       .  S
C180        C181   1.406       .  A
C181        C182   1.389       .  A
C181       Br188   1.919       .  S
C182        C183   1.402       .  A
C182        H187   1.084       .  S
C183        C184   1.415       .  A
C184       Br185   1.921       .  S
C189        C190   1.404       .  A
C189        C194   1.402       .  A
C189        H196   1.084       .  S
C190        C191   1.411       .  A
C191        C192   1.390       .  A
C191       Br198   1.924       .  S
C192        C193   1.406       .  A
C192        H197   1.083       .  S
C193        C194   1.416       .  A
C194       Br195   1.921       .  S
C199        C200   1.402       .  A
C199        C204   1.389       .  A
C199        H206   1.084       .  S
C200        C201   1.411       .  A
C201        C202   1.400       .  A
C201       Br208   1.920       .  S
C202        C203   1.405       .  A
C202        H207   1.084       .  S
C203        C204   1.405       .  A
C204       Br205   1.913       .  S
C209        C210   1.403       .  A
C209        C214   1.400       .  A
C209        H216   1.084       .  S
C210        C211   1.405       .  A
C211        C212   1.388       .  A
C211       Br218   1.922       .  S
C212        C213   1.403       .  A
C212        H217   1.083       .  S
C213        C214   1.410       .  A
C214       Br215   1.920       .  S
C219        C220   1.401       .  A
C219        C224   1.396       .  A
C219        H226   1.084       .  S
C220        C221   1.405       .  A
C221        C222   1.393       .  A
C221       Br228   1.920       .  S
C222        C223   1.405       .  A
C222        H227   1.082       .  S
C223        C224   1.415       .  A
C224       Br225   1.921       .  S
C229        C230   1.400       .  A
C229        C234   1.391       .  A
C229        H236   1.084       .  S
C230        C231   1.406       .  A
C231        C232   1.401       .  A
C231       Br774   1.920   1_545  S
C232        C233   1.409       .  A
C232        H237   1.083       .  S
C233        C234   1.413       .  A
C234       Br235   1.922       .  S
Br238       C767   1.920       .  S
C239        C240   1.400       .  A
C239        C244   1.390       .  A
C239        H246   1.084       .  S
C240        C269   1.469       .  S
C240        C509   1.410       .  A
C241        C242   1.401       .  A
C241        C508   1.411       .  A
C241       Br248   1.919   1_556  S
C242        C511   1.404       .  A
C242        H247   1.084       .  S
C243        C244   1.411       .  A
C243        C510   1.405       .  A
C244       Br245   1.921   1_545  S
C249        C250   1.399       .  A
C249        C522   1.389       .  A
C249        H524   1.084       .  S
C250        C251   1.410       .  A
C251        C252   1.405       .  A
C251       Br258   1.919       .  S
C252        C253   1.409       .  A
C252        H257   1.083       .  S
C253        C271   1.482       .  S
C253        C522   1.414       .  A
C254        C517   1.391   1_554  A
C254        C521   1.417   1_554  A
C254       Br255   1.927       .  S
H256        C517   1.083       .  S
C259        C264   1.403       .  A
C259        C528   1.411       .  A
C259        H266   1.083       .  S
C260        C261   1.417       .  A
C260        C527   1.407       .  A
C261        C262   1.388       .  A
C261       Br268   1.928       .  S
C262        C263   1.405       .  A
C262        H267   1.082       .  S
C263        C273   1.488       .  S
C263        C532   1.415       .  A
C264        C531   1.407       .  A
C264       Br265   1.918   1_556  S
C269        N270   1.362       .  A
C269        N274   1.362       .  A
N270        C271   1.358       .  A
C271        N272   1.351       .  A
N272        C273   1.352       .  A
C273        N274   1.353       .  A
C275        N276   1.355       .  A
C275        N280   1.357       .  A
C275        C478   1.465       .  S
N276        C277   1.355       .  A
C277        N278   1.359       .  A
C277        C491   1.487       .  S
N278        C279   1.359       .  A
C279        N280   1.357       .  A
C279        C501   1.483       .  S
C281        N282   1.361       .  A
C281        N286   1.361       .  A
C281        C468   1.477       .  S
N282        C283   1.355       .  A
C283        N284   1.353       .  A
C283        C458   1.473       .  S
N284        C285   1.354       .  A
C285        N286   1.357       .  A
C285        C451   1.472       .  S
C287        N288   1.358       .  A
C287        N292   1.357       .  A
C287        C438   1.470       .  S
N288        C289   1.359       .  A
C289        N290   1.356       .  A
C289        C421   1.492       .  S
N290        C291   1.357       .  A
C291        N292   1.355       .  A
C291        C428   1.479       .  S
O293       Zr305   2.437       .  S
O293        C295   1.287       .  A
O294       Zr331   2.419       .  S
O294        C295   1.286       .  A
C295        C471   1.470       .  S
O296       Zr308   2.440       .  S
O296        C298   1.288       .  A
O297      Zr1404   2.418   1_455  S
O297        C298   1.284       .  A
C298        C448   1.465       .  S
O299       Zr308   2.426       .  S
O299        C301   1.284       .  A
O300       Zr331   2.426       .  S
O300        C837   1.287       .  A
C301        C528   1.485       .  S
C301        O836   1.287       .  A
O302       Zr305   2.446       .  S
O302       C1376   1.289   1_455  A
O303       Zr332   2.413   1_565  S
O303        C840   1.284       .  A
C304        C380   1.472       .  S
C304       O1374   1.292       .  A
C304        O839   1.285       .  A
Zr305       O306   2.435       .  S
Zr305      O1379   2.435   1_455  S
Zr305       O311   2.378       .  S
Zr305       O848   2.364       .  S
Zr305      O1407   2.371   1_455  S
Zr305      O1409   2.373   1_455  S
O306        H349   0.990       .  S
O307      Zr1377   2.436       .  S
O307        H348   0.990       .  S
O307       H1424   0.990       .  S
Zr308       O309   2.433       .  S
Zr308       O310   2.435       .  S
Zr308       O312   2.362       .  S
Zr308       O847   2.374       .  S
Zr308       O336   2.374       .  S
Zr308       O338   2.368       .  S
O309        H350   0.990       .  S
O309        H353   0.990       .  S
O310        H343   0.990       .  S
O311       Zr844   2.371       .  S
O311       Zr331   2.380       .  S
O312       Zr841   2.367   1_545  S
O312      Zr1404   2.377   1_455  S
O312        H339   0.965       .  S
O313       Zr325   2.433       .  S
O313        C315   1.287       .  A
O314       Zr868   2.418       .  S
O314        C315   1.283       .  A
C315        C461   1.484       .  S
O316        C854   1.290       .  A
O317       Zr331   2.419   1_554  S
O317       C1122   1.286       .  A
C318        C366   1.465       .  S
C318        O852   1.290       .  A
C318       O1121   1.283       .  A
O319       Zr328   2.440       .  S
O319        C321   1.287       .  A
O320       Zr332   2.408       .  S
O320        C321   1.284       .  A
C321        C511   1.469       .  S
O322       Zr325   2.444       .  S
O322        C324   1.290       .  A
O323      Zr1403   2.415       .  S
O323        C324   1.283       .  A
C324        C518   1.479       .  S
Zr325       O326   2.439       .  S
Zr325       O327   2.434       .  S
Zr325       O333   2.374       .  S
Zr325       O334   2.367       .  S
Zr325       O337   2.364       .  S
Zr325       O335   2.372       .  S
O326        H346   0.990       .  S
O326        H351   0.990       .  S
O327        H347   0.990       .  S
Zr328       O597   2.434   1_546  S
Zr328      O1134   2.435   1_556  S
Zr328       O870   2.370   1_545  S
Zr328       O869   2.373   1_545  S
Zr328      O1410   2.368       .  S
Zr328      O1408   2.368       .  S
O329       Zr596   2.437       .  S
O329        H345   0.990       .  S
O330      Zr1132   2.436       .  S
O330        H344   0.990   1_655  S
O330       H1426   0.990       .  S
Zr331      O1395   2.430   1_455  S
Zr331      O1406   2.374   1_455  S
Zr331       O872   2.389       .  S
Zr331      O1409   2.384   1_455  S
Zr332      O1369   2.413       .  S
Zr332       O850   2.427   1_545  S
Zr332      O1384   2.383       .  S
Zr332       O869   2.380   1_545  S
Zr332       O871   2.382   1_545  S
Zr332      O1410   2.381       .  S
O333       Zr864   2.371       .  S
O333       Zr868   2.388       .  S
O333        H341   0.966       .  S
O334       Zr864   2.365       .  S
O334      Zr1403   2.380       .  S
O335      Zr1377   2.370       .  S
O335       Zr868   2.380       .  S
O336      Zr1400   2.371   1_455  S
O336       Zr867   2.390   1_545  S
O336        H340   0.966       .  S
O337      Zr1377   2.375       .  S
O337      Zr1403   2.388       .  S
O337        H342   0.966       .  S
O338      Zr1400   2.369   1_455  S
O338      Zr1404   2.380   1_455  S
H352       O1379   0.990       .  S
H354       O1402   0.990       .  S
O355       Zr367   2.442       .  S
O355        C357   1.288       .  A
O356       Zr393   2.413       .  S
O356        C357   1.285       .  A
C357        C441   1.476       .  S
O358       Zr370   2.443       .  S
O358        C360   1.289       .  A
O359      Zr1466   2.423   1_455  S
O359        C360   1.285       .  A
C360        C418   1.484       .  S
O361       Zr370   2.422       .  S
O361        C363   1.285       .  A
O362       Zr393   2.430       .  S
O362        C899   1.287       .  A
C363        C498   1.469       .  S
C363        O898   1.287       .  A
O364       Zr367   2.447       .  S
O364       C1438   1.289   1_455  A
O365       Zr394   2.413       .  S
O365        C902   1.284   1_545  A
C366       O1436   1.289       .  A
C366        O901   1.283       .  A
Zr367       O368   2.435       .  S
Zr367      O1441   2.440   1_455  S
Zr367       O373   2.378       .  S
Zr367       O910   2.369       .  S
Zr367      O1469   2.367   1_455  S
Zr367      O1471   2.374   1_455  S
O368        H411   0.989       .  S
O369      Zr1439   2.438       .  S
O369        H410   0.990       .  S
O369       H1486   0.990       .  S
Zr370       O371   2.435       .  S
Zr370       O372   2.435       .  S
Zr370       O374   2.365       .  S
Zr370       O909   2.372   1_545  S
Zr370       O398   2.378       .  S
Zr370       O400   2.372       .  S
O371        H412   0.990       .  S
O371        H415   0.990       .  S
O372        H405   0.990       .  S
O373       Zr906   2.371       .  S
O373       Zr393   2.380       .  S
O374       Zr903   2.372   1_545  S
O374      Zr1466   2.376   1_455  S
O374        H401   0.966       .  S
O375       Zr387   2.446       .  S
O375        C377   1.289       .  A
O376       Zr930   2.405       .  S
O376        C377   1.281       .  A
C377        C431   1.465       .  S
O378       Zr390   2.457       .  S
O378        C916   1.291   1_545  A
O379       Zr393   2.415       .  S
O379       C1452   1.285       .  A
C380        O914   1.291       .  A
C380       O1451   1.284       .  A
O381       Zr390   2.451       .  S
O381        C383   1.288       .  A
O382       Zr394   2.401       .  S
O382        C383   1.283       .  A
C383        C481   1.482       .  S
O384       Zr387   2.448       .  S
O384        C386   1.289       .  A
O385      Zr1465   2.404       .  S
O385        C386   1.283       .  A
C386        C488   1.473       .  S
Zr387       O388   2.437       .  S
Zr387       O389   2.435       .  S
Zr387       O395   2.368       .  S
Zr387       O396   2.364       .  S
Zr387       O399   2.377       .  S
Zr387       O397   2.370       .  S
O388        H408   0.990       .  S
O388        H413   0.990       .  S
O389        H409   0.990       .  S
Zr390       O927   2.434       .  S
Zr390      O1464   2.436       .  S
Zr390       O932   2.370   1_545  S
Zr390       O931   2.376   1_545  S
Zr390      O1472   2.380       .  S
Zr390      O1470   2.363       .  S
O391       Zr926   2.430       .  S
O391        H407   0.990       .  S
O392      Zr1462   2.435   1_455  S
O392        H406   0.990       .  S
O392       H1488   0.990       .  S
Zr393      O1457   2.412   1_455  S
Zr393      O1468   2.375   1_455  S
Zr393       O934   2.382       .  S
Zr393      O1471   2.383   1_455  S
Zr394      O1431   2.424       .  S
Zr394       O912   2.405   1_545  S
Zr394      O1446   2.374       .  S
Zr394       O931   2.386   1_545  S
Zr394       O933   2.380   1_545  S
Zr394      O1472   2.378       .  S
O395       Zr926   2.372       .  S
O395       Zr930   2.379       .  S
O395        H403   0.966       .  S
O396       Zr926   2.369       .  S
O396      Zr1465   2.376       .  S
O397      Zr1439   2.371       .  S
O397       Zr930   2.381       .  S
O398      Zr1462   2.369   1_455  S
O398       Zr929   2.384   1_545  S
O398        H402   0.966       .  S
O399      Zr1439   2.377       .  S
O399      Zr1465   2.384       .  S
O399        H404   0.966       .  S
O400      Zr1462   2.377   1_455  S
O400      Zr1466   2.378   1_455  S
H414       O1441   0.990       .  S
H416       O1464   0.990       .  S
C417        C418   1.404       .  A
C417        C422   1.397       .  A
C417        H424   1.084       .  S
C418        C419   1.413       .  A
C419        C420   1.401       .  A
C419       Br426   1.922       .  S
C420        C421   1.410       .  A
C420        H425   1.083       .  S
C421        C422   1.417       .  A
C422       Br423   1.923       .  S
C427        C428   1.406       .  A
C427        C432   1.395       .  A
C427        H434   1.083       .  S
C428        C429   1.417       .  A
C429        C430   1.399       .  A
C429       Br436   1.922       .  S
C430        C431   1.400       .  A
C430        H435   1.084       .  S
C431        C432   1.403       .  A
C432       Br433   1.918       .  S
C437        C438   1.402       .  A
C437        C442   1.398       .  A
C437        H444   1.084       .  S
C438        C439   1.409       .  A
C439        C440   1.395       .  A
C439       Br446   1.922       .  S
C440        C441   1.405       .  A
C440        H445   1.084       .  S
C441        C442   1.412       .  A
C442       Br443   1.920       .  S
C447        C448   1.400       .  A
C447        C452   1.399       .  A
C447        H454   1.084       .  S
C448        C449   1.405       .  A
C449        C450   1.395       .  A
C449       Br456   1.918       .  S
C450        C451   1.403       .  A
C450        H455   1.084       .  S
C451        C452   1.413       .  A
C452       Br453   1.920       .  S
C457        C458   1.403       .  A
C457        C462   1.402       .  A
C457        H464   1.084       .  S
C458        C459   1.410       .  A
C459        C460   1.390       .  A
C459       Br466   1.924       .  S
C460        C461   1.405       .  A
C460        H465   1.083       .  S
C461        C462   1.416       .  A
C462       Br463   1.919       .  S
C467        C468   1.404       .  A
C467        C472   1.393       .  A
C467        H474   1.083       .  S
C468        C469   1.412       .  A
C469        C470   1.401       .  A
C469       Br476   1.921       .  S
C470        C471   1.403       .  A
C470        H475   1.084       .  S
C471        C472   1.406       .  A
C472       Br473   1.918       .  S
C477        C478   1.401       .  A
C477        C482   1.402       .  A
C477        H484   1.084       .  S
C478        C479   1.405       .  A
C479        C480   1.391       .  A
C479       Br486   1.922       .  S
C480        C481   1.408       .  A
C480        H485   1.084       .  S
C481        C482   1.415       .  A
C482       Br483   1.921       .  S
C487        C488   1.400       .  A
C487        C492   1.396       .  A
C487        H494   1.084       .  S
C488        C489   1.407       .  A
C489        C490   1.398       .  A
C489       Br496   1.922       .  S
C490        C491   1.409       .  A
C490        H495   1.083       .  S
C491        C492   1.419       .  A
C492       Br493   1.923       .  S
C497        C498   1.400       .  A
C497        C502   1.393       .  A
C497        H504   1.084       .  S
C498        C499   1.407       .  A
C499        C500   1.402       .  A
C499      Br1042   1.920   1_545  S
C500        C501   1.411       .  A
C500        H505   1.083       .  S
C501        C502   1.412       .  A
C502       Br503   1.921       .  S
Br506      C1035   1.920       .  S
C507        C508   1.406       .  A
C507        C512   1.391       .  A
C507        H514   1.083       .  S
C509        C510   1.400       .  A
C509       Br516   1.920       .  S
C510        H515   1.084       .  S
C511        C512   1.407       .  A
C512       Br513   1.922       .  S
C517        C518   1.399       .  A
C518        C519   1.412       .  A
C519        C520   1.406       .  A
C519       Br526   1.921       .  S
C520        C521   1.409       .  A
C520        H525   1.083       .  S
C522       Br523   1.925       .  S
C527        C532   1.402       .  A
C527        H534   1.083       .  S
C528        C529   1.417       .  A
C529        C530   1.387       .  A
C529       Br536   1.921       .  S
C530        C531   1.398       .  A
C530        H535   1.084       .  S
C532       Br533   1.920       .  S
C537        N538   1.362       .  A
C537        N542   1.361       .  A
C537       C1044   1.476       .  S
N538        C539   1.359       .  A
C539        N540   1.354       .  A
C539       C1057   1.478       .  S
N540        C541   1.350       .  A
C541        N542   1.350       .  A
C541       C1067   1.467       .  S
C543        N544   1.358       .  A
C543        N548   1.357       .  A
C543        C746   1.465       .  S
N544        C545   1.358       .  A
C545        N546   1.356       .  A
C545        C759   1.487       .  S
N546        C547   1.356       .  A
C547        N548   1.355       .  A
C547        C769   1.475       .  S
C549        N550   1.360       .  A
C549        N554   1.360       .  A
C549        C736   1.472       .  S
N550        C551   1.354       .  A
C551        N552   1.352       .  A
C551        C726   1.470       .  S
N552        C553   1.353       .  A
C553        N554   1.356       .  A
C553        C719   1.468       .  S
C555        N556   1.359       .  A
C555        N560   1.356       .  A
C555        C706   1.472       .  S
N556        C557   1.360       .  A
C557        N558   1.356       .  A
C557        C689   1.493       .  S
N558        C559   1.356       .  A
C559        N560   1.352       .  A
C559        C696   1.471       .  S
O561       Zr573   2.439       .  S
O561        C563   1.287       .  A
O562       Zr599   2.408       .  S
O562        C563   1.284       .  A
C563        C739   1.467       .  S
O564       Zr576   2.434       .  S
O564        C566   1.286       .  A
O565      Zr1672   2.416       .  S
O565        C566   1.284   1_655  A
C566        C716   1.460       .  S
O567       Zr576   2.429       .  S
O567        C569   1.284       .  A
O568       Zr599   2.430   1_545  S
C569        C796   1.489       .  S
O570       Zr573   2.458       .  S
O570       C1644   1.292   1_455  A
O571       Zr600   2.417       .  S
C572        C648   1.470       .  S
C572       O1642   1.290       .  A
Zr573       O574   2.433       .  S
Zr573      O1647   2.438   1_455  S
Zr573       O579   2.382       .  S
Zr573      O1675   2.366   1_455  S
Zr573      O1677   2.375   1_455  S
O574        H617   0.990       .  S
O575      Zr1645   2.435       .  S
O575        H616   0.990       .  S
O575       H1692   0.990       .  S
Zr576       O577   2.434       .  S
Zr576       O578   2.434       .  S
Zr576       O580   2.360       .  S
Zr576       O604   2.359       .  S
Zr576       O606   2.368   1_455  S
O577        H618   0.990       .  S
O577        H621   0.990       .  S
O578        H611   0.990       .  S
O579       Zr599   2.380       .  S
O580      Zr1672   2.380   1_455  S
O580        H607   0.965       .  S
O581       Zr593   2.430       .  S
O581        C583   1.287       .  A
O582        C583   1.284       .  A
C583        C729   1.479       .  S
O584       Zr864   2.444   1_554  S
O585       Zr599   2.410       .  S
O585       C1926   1.284   1_455  A
C586        C634   1.467       .  S
C586       O1925   1.285   1_554  A
O587       Zr596   2.445       .  S
O587        C589   1.288       .  A
O588       Zr600   2.403       .  S
O588        C589   1.283       .  A
C589        C779   1.468       .  S
O590       Zr593   2.442       .  S
O590        C592   1.289       .  A
O591      Zr1671   2.430       .  S
O591        C592   1.286       .  A
C592        C786   1.479       .  S
Zr593       O594   2.436       .  S
Zr593       O595   2.436       .  S
Zr593       O601   2.376       .  S
Zr593       O602   2.369       .  S
Zr593       O605   2.362       .  S
Zr593       O603   2.374       .  S
O594        H614   0.990       .  S
O594        H619   0.990       .  S
O595        H615   0.990       .  S
Zr596       O852   2.447       .  S
Zr596      O1938   2.435       .  S
Zr596      O1678   2.371       .  S
Zr596      O1676   2.368       .  S
O597        H613   0.990       .  S
O598      Zr1936   2.436   1_454  S
O598        H612   0.990       .  S
O598       H1694   0.990   1_455  S
Zr599      O1663   2.426   1_455  S
Zr599      O1674   2.378   1_455  S
Zr599      O1677   2.386   1_455  S
Zr600      O1637   2.416       .  S
Zr600      O1652   2.381       .  S
Zr600      O1678   2.378       .  S
O601        H609   0.966       .  S
O602      Zr1671   2.376       .  S
O603      Zr1645   2.369       .  S
O604      Zr1668   2.368   1_455  S
O604        H608   0.966       .  S
O605      Zr1645   2.377       .  S
O605      Zr1671   2.386       .  S
O605        H610   0.966       .  S
O606      Zr1668   2.371       .  S
O606      Zr1672   2.378       .  S
H620       O1647   0.990       .  S
H622       O1670   0.990       .  S
O623       Zr635   2.433       .  S
O623        C625   1.285       .  A
O624       Zr661   2.404       .  S
O624        C625   1.283       .  A
C625        C709   1.467       .  S
O626       Zr638   2.442       .  S
O626        C628   1.288       .  A
O627      Zr1734   2.415   1_455  S
O627        C628   1.283       .  A
C628        C686   1.482       .  S
O629       Zr638   2.422       .  S
O629        C631   1.285       .  A
O630       Zr661   2.427   1_545  S
C631        C766   1.464       .  S
O632       Zr635   2.432       .  S
O632       C1706   1.286       .  A
O633       Zr662   2.417       .  S
C634       O1704   1.288       .  A
Zr635       O636   2.434       .  S
Zr635      O1709   2.436   1_455  S
Zr635       O641   2.374       .  S
Zr635      O1737   2.372   1_455  S
Zr635      O1739   2.369   1_455  S
O636        H679   0.990   1_565  S
O637      Zr1707   2.436       .  S
O637        H678   0.990       .  S
O637       H1754   0.990       .  S
Zr638       O639   2.435       .  S
Zr638       O640   2.436       .  S
Zr638       O642   2.362       .  S
Zr638       O666   2.376       .  S
Zr638       O668   2.367       .  S
O639        H680   0.990       .  S
O639        H683   0.990       .  S
O640        H673   0.990       .  S
O641       Zr661   2.376       .  S
O642      Zr1734   2.374   1_455  S
O642        H669   0.966       .  S
O643       Zr655   2.445       .  S
O643        C645   1.289       .  A
O644        C645   1.281       .  A
C645        C699   1.460       .  S
O646       Zr658   2.446       .  S
O647       Zr661   2.407       .  S
O647       C1720   1.283   1_455  A
C648       O1719   1.284       .  A
O649       Zr658   2.451       .  S
O649        C651   1.289       .  A
O650       Zr662   2.404       .  S
O650        C651   1.284       .  A
C651        C749   1.476       .  S
O652       Zr655   2.453       .  S
O652        C654   1.290       .  A
O653      Zr1733   2.417       .  S
O653        C654   1.285       .  A
C654        C756   1.479       .  S
Zr655       O656   2.436       .  S
Zr655       O657   2.435       .  S
Zr655       O663   2.368       .  S
Zr655       O664   2.365       .  S
Zr655       O667   2.373       .  S
Zr655       O665   2.376       .  S
O656        H676   0.990       .  S
O656        H681   0.990       .  S
O657        H677   0.990       .  S
Zr658      O1732   2.433       .  S
Zr658      O1740   2.377       .  S
Zr658      O1738   2.371       .  S
O659        H675   0.990       .  S
O660      Zr1730   2.438   1_455  S
O660        H674   0.990       .  S
O660       H1756   0.990       .  S
Zr661      O1725   2.413   1_455  S
Zr661      O1736   2.377   1_455  S
Zr661      O1739   2.385   1_455  S
Zr662      O1699   2.413       .  S
Zr662      O1714   2.376       .  S
Zr662      O1740   2.376       .  S
O663        H671   0.966       .  S
O664      Zr1733   2.373       .  S
O665      Zr1707   2.373       .  S
O666      Zr1730   2.363   1_455  S
O666        H670   0.966       .  S
O667      Zr1707   2.375       .  S
O667      Zr1733   2.383       .  S
O667        H672   0.966       .  S
O668      Zr1730   2.379   1_455  S
O668      Zr1734   2.378   1_455  S
H682       O1709   0.990       .  S
H684       O1732   0.990       .  S
C685        C686   1.403       .  A
C685        C690   1.397       .  A
C685        H692   1.084       .  S
C686        C687   1.412       .  A
C687        C688   1.399       .  A
C687       Br694   1.923       .  S
C688        C689   1.410       .  A
C688        H693   1.082       .  S
C689        C690   1.418       .  A
C690       Br691   1.924       .  S
C695        C696   1.403       .  A
C695        C700   1.393       .  A
C695        H702   1.084       .  S
C696        C697   1.416       .  A
C697        C698   1.399       .  A
C697       Br704   1.922       .  S
C698        C699   1.399       .  A
C698        H703   1.083       .  S
C699        C700   1.400       .  A
C700       Br701   1.913       .  S
C705        C706   1.406       .  A
C705        C710   1.397       .  A
C705        H712   1.084       .  S
C706        C707   1.411       .  A
C707        C708   1.391       .  A
C707       Br714   1.920       .  S
C708        C709   1.401       .  A
C708        H713   1.084       .  S
C709        C710   1.409       .  A
C710       Br711   1.920       .  S
C715        C716   1.399       .  A
C715        C720   1.398       .  A
C715        H722   1.084       .  S
C716        C717   1.406       .  A
C717        C718   1.393       .  A
C717       Br724   1.920       .  S
C718        C719   1.403       .  A
C718        H723   1.084       .  S
C719        C720   1.413       .  A
C720       Br721   1.920       .  S
C725        C726   1.404       .  A
C725        C730   1.403       .  A
C725        H732   1.083       .  S
C726        C727   1.408       .  A
C727        C728   1.389       .  A
C727       Br734   1.924       .  S
C728        C729   1.404       .  A
C728        H733   1.084       .  S
C729        C730   1.414       .  A
C730       Br731   1.919       .  S
C735        C736   1.402       .  A
C735        C740   1.390       .  A
C735        H742   1.084       .  S
C736        C737   1.411       .  A
C737        C738   1.399       .  A
C737       Br744   1.918       .  S
C738        C739   1.402       .  A
C738        H743   1.084       .  S
C739        C740   1.406       .  A
C740       Br741   1.914       .  S
C745        C746   1.402       .  A
C745        C750   1.402       .  A
C745        H752   1.084       .  S
C746        C747   1.406       .  A
C747        C748   1.390       .  A
C747       Br754   1.922       .  S
C748        C749   1.404       .  A
C748        H753   1.084       .  S
C749        C750   1.412       .  A
C750       Br751   1.918       .  S
C755        C756   1.403       .  A
C755        C760   1.400       .  A
C755        H762   1.084       .  S
C756        C757   1.409       .  A
C757        C758   1.398       .  A
C757       Br764   1.920       .  S
C758        C759   1.408       .  A
C758        H763   1.082       .  S
C759        C760   1.416       .  A
C760       Br761   1.921       .  S
C765        C766   1.399       .  A
C765        C770   1.390       .  A
C765        H772   1.084       .  S
C766        C767   1.407       .  A
C767        C768   1.400       .  A
C768        C769   1.409       .  A
C768        H773   1.083       .  S
C769        C770   1.410       .  A
C770       Br771   1.921       .  S
C775        C776   1.404       .  A
C775        C780   1.394       .  A
C775        H782   1.084       .  S
C776        C805   1.475       .  S
C776       C1045   1.411       .  A
C777       C1044   1.414       .  A
C777        C778   1.399       .  A
C777       Br784   1.920   1_556  S
C778       C1047   1.402       .  A
C778        H783   1.084       .  S
C779       C1046   1.402       .  A
C779        C780   1.408       .  A
C780       Br781   1.919       .  S
C785        C786   1.400       .  A
C785       C1058   1.394       .  A
C785       H1060   1.083       .  S
C786        C787   1.411       .  A
C787        C788   1.406       .  A
C787       Br794   1.919       .  S
C788        C789   1.408       .  A
C788        H793   1.083       .  S
C789        C807   1.484       .  S
C789       C1058   1.413       .  A
C790       C1053   1.392       .  A
C790       C1057   1.411       .  A
C790       Br791   1.926   1_556  S
H792       C1053   1.082       .  S
C795       C1064   1.407       .  A
C795        C800   1.403       .  A
C795        H802   1.083   1_556  S
C796       C1063   1.407       .  A
C796        C797   1.415       .  A
C797        C798   1.392       .  A
C797       Br804   1.925       .  S
C798        C799   1.407       .  A
C798        H803   1.082       .  S
C799        C809   1.491       .  S
C799       C1068   1.416       .  A
C800       C1067   1.407       .  A
C800       Br801   1.917   1_556  S
C805        N806   1.363       .  A
C805        N810   1.361       .  A
N806        C807   1.358       .  A
C807        N808   1.353       .  A
N808        C809   1.353       .  A
C809        N810   1.354       .  A
C811        N812   1.358       .  A
C811        N816   1.356       .  A
C811       C1014   1.468       .  S
N812        C813   1.358       .  A
C813        N814   1.360       .  A
C813       C1027   1.492       .  S
N814        C815   1.358       .  A
C815        N816   1.356       .  A
C815       C1037   1.483       .  S
C817        N818   1.360       .  A
C817        N822   1.361       .  A
C817       C1004   1.475       .  S
N818        C819   1.354       .  A
C819        N820   1.353       .  A
C819        C994   1.473       .  S
N820        C821   1.353       .  A
C821        N822   1.357       .  A
C821        C987   1.471       .  S
C823        N824   1.358       .  A
C823        N828   1.356       .  A
C823        C974   1.469       .  S
N824        C825   1.359       .  A
C825        N826   1.354       .  A
C825        C957   1.489       .  S
N826        C827   1.356       .  A
C827        N828   1.355       .  A
C827        C964   1.475       .  S
O829       Zr841   2.436       .  S
O829        C831   1.286       .  A
O830       Zr867   2.415       .  S
O830        C831   1.285       .  A
C831       C1007   1.470       .  S
O832       Zr844   2.445       .  S
O832        C834   1.289       .  A
O833      Zr1940   2.409   1_455  S
O833        C834   1.282       .  A
C834        C984   1.463       .  S
O835       Zr844   2.434       .  S
O835        C837   1.286       .  A
O836       Zr867   2.429   1_545  S
C837       C1064   1.478       .  S
O838       Zr841   2.452       .  S
O838       C1912   1.291   1_455  A
O839       Zr868   2.418       .  S
C840        C916   1.467       .  S
C840       O1910   1.291       .  A
Zr841       O842   2.434       .  S
Zr841      O1915   2.437   1_455  S
Zr841       O847   2.379   1_565  S
Zr841      O1943   2.368   1_455  S
Zr841      O1945   2.374   1_455  S
O842        H885   0.990       .  S
O843      Zr1913   2.435       .  S
O843        H884   0.990       .  S
O843       H1960   0.990       .  S
Zr844       O845   2.435       .  S
Zr844       O846   2.436       .  S
Zr844       O848   2.359       .  S
Zr844       O872   2.374       .  S
Zr844       O874   2.371       .  S
O845        H886   0.990       .  S
O845        H889   0.990       .  S
O846        H879   0.990       .  S
O847       Zr867   2.379   1_545  S
O848      Zr1940   2.377   1_455  S
O848        H875   0.965       .  S
O849       Zr861   2.422       .  S
O849        C851   1.285       .  A
O850        C851   1.285       .  A
C851        C997   1.484       .  S
O853       Zr867   2.412   1_554  S
O853       C1658   1.285       .  A
C854        C902   1.470       .  S
C854       O1657   1.285       .  A
O855       Zr864   2.433       .  S
O855        C857   1.286       .  A
O856       Zr868   2.402       .  S
O856        C857   1.283       .  A
C857       C1047   1.461       .  S
O858       Zr861   2.429       .  S
O858        C860   1.287       .  A
O859      Zr1939   2.423       .  S
O859        C860   1.285       .  A
C860       C1054   1.475       .  S
Zr861       O862   2.436       .  S
Zr861       O863   2.437       .  S
Zr861       O869   2.373       .  S
Zr861       O870   2.363       .  S
Zr861       O873   2.363       .  S
Zr861       O871   2.373       .  S
O862        H882   0.990       .  S
O862        H887   0.990       .  S
O863        H883   0.990       .  S
Zr864      O1670   2.437   1_556  S
Zr864      O1946   2.375       .  S
Zr864      O1944   2.368       .  S
O865        H881   0.990       .  S
O866      Zr1668   2.436       .  S
O866        H880   0.990       .  S
O866       H1962   0.990       .  S
Zr867      O1931   2.427   1_455  S
Zr867      O1942   2.378   1_455  S
Zr867      O1945   2.382   1_455  S
Zr868      O1905   2.421       .  S
Zr868      O1920   2.380       .  S
Zr868      O1946   2.380       .  S
O869        H877   0.966       .  S
O870      Zr1939   2.373       .  S
O871      Zr1913   2.374       .  S
O872      Zr1936   2.374   1_455  S
O872        H876   0.966       .  S
O873      Zr1913   2.372       .  S
O873      Zr1939   2.382       .  S
O873        H878   0.966       .  S
O874      Zr1936   2.370   1_455  S
O874      Zr1940   2.381   1_455  S
H888       O1915   0.990       .  S
H890       O1938   0.990       .  S
O891       Zr903   2.448       .  S
O891        C893   1.289       .  A
O892       Zr929   2.412       .  S
O892        C893   1.285       .  A
C893        C977   1.480       .  S
O894       Zr906   2.440       .  S
O894        C896   1.288       .  A
O895      Zr2002   2.418   1_455  S
O895        C896   1.284       .  A
C896        C954   1.480       .  S
O897       Zr906   2.427       .  S
O897        C899   1.286       .  A
O898       Zr929   2.431   1_545  S
C899       C1034   1.469       .  S
O900       Zr903   2.446       .  S
O900       C1974   1.290   1_455  A
O901       Zr930   2.408       .  S
C902       O1972   1.290       .  A
Zr903       O904   2.435       .  S
Zr903      O1977   2.437   1_455  S
Zr903       O909   2.372       .  S
Zr903      O2005   2.371   1_455  S
Zr903      O2007   2.375   1_455  S
O904        H947   0.990   1_565  S
O905      Zr1975   2.438       .  S
O905        H946   0.990       .  S
O905       H2022   0.990       .  S
Zr906       O907   2.436       .  S
Zr906       O908   2.433       .  S
Zr906       O910   2.364       .  S
Zr906       O934   2.379       .  S
Zr906       O936   2.375       .  S
O907        H948   0.990       .  S
O907        H951   0.990       .  S
O908        H941   0.990       .  S
O909       Zr929   2.377       .  S
O910      Zr2002   2.374   1_455  S
O910        H937   0.966       .  S
O911       Zr923   2.445       .  S
O911        C913   1.289       .  A
O912        C913   1.281       .  A
C913        C967   1.464       .  S
O914       Zr926   2.453       .  S
O915       Zr929   2.416       .  S
O915       C1988   1.285   1_455  A
C916       O1987   1.282       .  A
O917       Zr926   2.449       .  S
O917        C919   1.288       .  A
O918       Zr930   2.407       .  S
O918        C919   1.284       .  A
C919       C1017   1.483       .  S
O920       Zr923   2.460       .  S
O920        C922   1.292       .  A
O921      Zr2001   2.411       .  S
O921        C922   1.284       .  A
C922       C1024   1.482       .  S
Zr923       O924   2.437       .  S
Zr923       O925   2.434       .  S
Zr923       O931   2.371       .  S
Zr923       O932   2.361       .  S
Zr923       O935   2.375       .  S
Zr923       O933   2.372       .  S
O924        H944   0.990       .  S
O924        H949   0.990       .  S
O925        H945   0.990       .  S
Zr926      O2000   2.435       .  S
Zr926      O2008   2.376       .  S
Zr926      O2006   2.369       .  S
O927        H943   0.990       .  S
O928      Zr1998   2.438   1_455  S
O928        H942   0.990       .  S
O928       H2024   0.990       .  S
Zr929      O1993   2.412   1_455  S
Zr929      O2004   2.376   1_455  S
Zr929      O2007   2.383   1_455  S
Zr930      O1967   2.417       .  S
Zr930      O1982   2.382       .  S
Zr930      O2008   2.379       .  S
O931        H939   0.966       .  S
O932      Zr2001   2.376       .  S
O933      Zr1975   2.369       .  S
O934      Zr1998   2.365   1_455  S
O934        H938   0.966       .  S
O935      Zr1975   2.374       .  S
O935      Zr2001   2.380       .  S
O935        H940   0.966       .  S
O936      Zr1998   2.381   1_455  S
O936      Zr2002   2.378   1_455  S
H950       O1977   0.990       .  S
H952       O2000   0.990       .  S
C953        C954   1.404       .  A
C953        C958   1.398       .  A
C953        H960   1.084       .  S
C954        C955   1.411       .  A
C955        C956   1.396       .  A
C955       Br962   1.922       .  S
C956        C957   1.407       .  A
C956        H961   1.083       .  S
C957        C958   1.418       .  A
C958       Br959   1.922       .  S
C963        C964   1.405       .  A
C963        C968   1.394       .  A
C963        H970   1.083       .  S
C964        C965   1.417       .  A
C965        C966   1.399       .  A
C965       Br972   1.923       .  S
C966        C967   1.400       .  A
C966        H971   1.084       .  S
C967        C968   1.402       .  A
C968       Br969   1.915       .  S
C973        C974   1.400       .  A
C973        C978   1.398       .  A
C973        H980   1.084       .  S
C974        C975   1.409       .  A
C975        C976   1.396       .  A
C975       Br982   1.922       .  S
C976        C977   1.406       .  A
C976        H981   1.084       .  S
C977        C978   1.414       .  A
C978       Br979   1.919       .  S
C983        C984   1.399       .  A
C983        C988   1.398       .  A
C983        H990   1.084       .  S
C984        C985   1.404       .  A
C985        C986   1.395       .  A
C985       Br992   1.919       .  S
C986        C987   1.404       .  A
C986        H991   1.084       .  S
C987        C988   1.413       .  A
C988       Br989   1.920       .  S
C993        C994   1.404       .  A
C993        C998   1.402       .  A
C993       H1000   1.084       .  S
C994        C995   1.410       .  A
C995        C996   1.390       .  A
C995      Br1002   1.925       .  S
C996        C997   1.406       .  A
C996       H1001   1.083       .  S
C997        C998   1.415       .  A
C998       Br999   1.920       .  S
C1003      C1004   1.404       .  A
C1003      C1008   1.392       .  A
C1003      H1010   1.083       .  S
C1004      C1005   1.411       .  A
C1005      C1006   1.399       .  A
C1005     Br1012   1.920       .  S
C1006      C1007   1.404       .  A
C1006      H1011   1.084       .  S
C1007      C1008   1.408       .  A
C1008     Br1009   1.920       .  S
C1013      C1014   1.400       .  A
C1013      C1018   1.401       .  A
C1013      H1020   1.084       .  S
C1014      C1015   1.407       .  A
C1015      C1016   1.394       .  A
C1015     Br1022   1.922       .  S
C1016      C1017   1.407       .  A
C1016      H1021   1.084       .  S
C1017      C1018   1.416       .  A
C1018     Br1019   1.920       .  S
C1023      C1024   1.405       .  A
C1023      C1028   1.402       .  A
C1023      H1030   1.084       .  S
C1024      C1025   1.408       .  A
C1025      C1026   1.397       .  A
C1025     Br1032   1.920       .  S
C1026      C1027   1.408       .  A
C1026      H1031   1.082       .  S
C1027      C1028   1.420       .  A
C1028     Br1029   1.924       .  S
C1033      C1034   1.402       .  A
C1033      C1038   1.395       .  A
C1033      H1040   1.083       .  S
C1034      C1035   1.405       .  A
C1035      C1036   1.400       .  A
C1036      C1037   1.410       .  A
C1036      H1041   1.083       .  S
C1037      C1038   1.413       .  A
C1038     Br1039   1.921       .  S
C1043      C1044   1.406       .  A
C1043      C1048   1.388       .  A
C1043      H1050   1.083       .  S
C1045      C1046   1.398       .  A
C1045     Br1052   1.919       .  S
C1046      H1051   1.084       .  S
C1047      C1048   1.404       .  A
C1048     Br1049   1.921       .  S
C1053      C1054   1.401       .  A
C1054      C1055   1.411       .  A
C1055      C1056   1.404       .  A
C1055     Br1062   1.921       .  S
C1056      C1057   1.407       .  A
C1056      H1061   1.083       .  S
C1058     Br1059   1.924       .  S
C1063      C1068   1.402       .  A
C1063      H1070   1.082       .  S
C1064      C1065   1.412       .  A
C1065      C1066   1.391       .  A
C1065     Br1072   1.919       .  S
C1066      C1067   1.398       .  A
C1066      H1071   1.084       .  S
C1068     Br1069   1.921       .  S
C1073      N1074   1.364       .  A
C1073      N1078   1.362       .  A
C1073      C1580   1.482       .  S
N1074      C1075   1.360       .  A
C1075      N1076   1.355       .  A
C1075      C1593   1.483       .  S
N1076      C1077   1.353       .  A
C1077      N1078   1.354       .  A
C1077      C1603   1.469       .  S
C1079      N1080   1.356       .  A
C1079      N1084   1.357       .  A
C1079      C1282   1.462       .  S
N1080      C1081   1.356       .  A
C1081      N1082   1.357       .  A
C1081      C1295   1.483       .  S
N1082      C1083   1.356       .  A
C1083      N1084   1.356       .  A
C1083      C1305   1.474       .  S
C1085      N1086   1.360       .  A
C1085      N1090   1.362       .  A
C1085      C1272   1.475       .  S
N1086      C1087   1.355       .  A
C1087      N1088   1.351       .  A
C1087      C1262   1.473       .  S
N1088      C1089   1.354       .  A
C1089      N1090   1.358       .  A
C1089      C1255   1.477       .  S
C1091      N1092   1.357       .  A
C1091      N1096   1.356       .  A
C1091      C1242   1.470       .  S
N1092      C1093   1.359       .  A
C1093      N1094   1.355       .  A
C1093      C1225   1.488       .  S
N1094      C1095   1.355       .  A
C1095      N1096   1.352       .  A
C1095      C1232   1.465       .  S
O1097     Zr1109   2.443       .  S
O1097      C1099   1.288       .  A
O1098     Zr1135   2.413       .  S
O1098      C1099   1.285       .  A
C1099      C1275   1.471       .  S
O1100     Zr1112   2.445       .  S
O1100      C1102   1.289       .  A
O1101      C1102   1.284       .  A
C1102      C1252   1.468       .  S
O1103     Zr1112   2.439       .  S
O1103      C1105   1.287       .  A
O1104     Zr1135   2.418       .  S
O1104      C1641   1.285       .  A
C1105      C1332   1.488       .  S
C1105      O1640   1.287       .  A
O1106     Zr1109   2.442       .  S
O1107     Zr1136   2.420       .  S
O1107      C1644   1.285       .  A
C1108      C1184   1.468       .  S
C1108      O1643   1.283       .  A
Zr1109     O1110   2.435       .  S
Zr1109     O1115   2.379       .  S
Zr1109     O1652   2.371       .  S
O1110      H1153   0.990       .  S
O1111      H1152   0.990       .  S
Zr1112     O1113   2.434       .  S
Zr1112     O1114   2.434       .  S
Zr1112     O1116   2.363       .  S
Zr1112     O1651   2.373   1_545  S
Zr1112     O1140   2.368       .  S
Zr1112     O1142   2.370       .  S
O1113      H1154   0.989       .  S
O1113      H1157   0.990       .  S
O1114      H1147   0.990       .  S
O1115     Zr1648   2.375       .  S
O1115     Zr1135   2.382       .  S
O1116     Zr1645   2.362   1_545  S
O1116      H1143   0.965       .  S
O1117     Zr1129   2.429       .  S
O1117      C1119   1.287       .  A
O1118     Zr1672   2.423       .  S
O1118      C1119   1.284       .  A
C1119      C1265   1.485       .  S
O1120     Zr1400   2.436   1_554  S
O1120      C1658   1.287   1_645  A
O1121     Zr1135   2.407       .  S
C1122      C1170   1.468       .  S
C1122      O1656   1.288   1_455  A
O1123     Zr1132   2.446       .  S
O1123      C1125   1.289       .  A
O1124     Zr1136   2.410   1_545  S
O1124      C1125   1.284       .  A
C1125      C1315   1.475       .  S
O1126     Zr1129   2.438       .  S
O1126      C1128   1.288       .  A
O1127      C1128   1.285       .  A
C1128      C1322   1.476       .  S
Zr1129     O1130   2.436       .  S
Zr1129     O1131   2.435       .  S
Zr1129     O1137   2.372       .  S
Zr1129     O1138   2.368       .  S
Zr1129     O1141   2.362       .  S
Zr1129     O1139   2.374       .  S
O1130      H1150   0.990       .  S
O1130      H1155   0.990       .  S
O1131      H1151   0.990       .  S
Zr1132     O1388   2.450   1_545  S
Zr1132     O1937   2.434   1_545  S
Zr1132     O1674   2.370   1_545  S
Zr1132     O1673   2.373   1_545  S
O1133     Zr1936   2.433   1_554  S
O1133      H1149   0.990       .  S
O1134      H1148   0.990       .  S
Zr1135     O1676   2.384       .  S
Zr1136     O1654   2.416       .  S
Zr1136     O1673   2.388       .  S
Zr1136     O1675   2.383       .  S
O1137     Zr1668   2.373       .  S
O1137     Zr1672   2.381       .  S
O1137      H1145   0.966       .  S
O1138     Zr1668   2.371       .  S
O1139     Zr1672   2.379       .  S
O1140     Zr1671   2.385   1_545  S
O1140      H1144   0.966       .  S
O1141      H1146   0.966       .  S
O1159     Zr1171   2.443       .  S
O1159      C1161   1.288       .  A
O1160     Zr1197   2.404       .  S
O1160      C1161   1.283       .  A
C1161      C1245   1.468       .  S
O1162     Zr1174   2.439       .  S
O1162      C1164   1.288       .  A
O1163      C1164   1.284       .  A
C1164      C1222   1.479       .  S
O1165     Zr1174   2.421       .  S
O1165      C1167   1.284       .  A
O1166     Zr1197   2.427       .  S
O1166      C1703   1.285       .  A
C1167      C1302   1.464       .  S
C1167      O1702   1.286       .  A
O1168     Zr1171   2.443       .  S
O1169     Zr1198   2.416       .  S
O1169      C1706   1.285   1_645  A
C1170      O1705   1.285   1_455  A
Zr1171     O1172   2.434       .  S
Zr1171     O1177   2.378       .  S
Zr1171     O1714   2.372       .  S
O1172      H1215   0.990       .  S
O1173      H1214   0.990   1_655  S
Zr1174     O1175   2.436       .  S
Zr1174     O1176   2.436       .  S
Zr1174     O1178   2.364       .  S
Zr1174     O1713   2.375   1_545  S
Zr1174     O1202   2.378       .  S
Zr1174     O1204   2.368       .  S
O1175      H1216   0.990       .  S
O1175      H1219   0.990       .  S
O1176      H1209   0.990       .  S
O1177     Zr1710   2.371       .  S
O1177     Zr1197   2.374       .  S
O1178     Zr1707   2.367   1_545  S
O1178      H1205   0.966       .  S
O1179     Zr1191   2.437       .  S
O1179      C1181   1.287       .  A
O1180     Zr1734   2.406       .  S
O1180      C1181   1.281       .  A
C1181      C1235   1.457       .  S
O1182     Zr1194   2.460   1_565  S
O1182      C1720   1.292       .  A
O1183     Zr1197   2.407       .  S
C1184      O1718   1.292       .  A
O1185     Zr1194   2.449       .  S
O1185      C1187   1.288       .  A
O1186     Zr1198   2.396       .  S
O1186      C1187   1.282       .  A
C1187      C1285   1.473       .  S
O1188     Zr1191   2.441       .  S
O1188      C1190   1.288       .  A
O1189      C1190   1.284       .  A
C1190      C1292   1.472       .  S
Zr1191     O1192   2.436       .  S
Zr1191     O1193   2.435       .  S
Zr1191     O1199   2.368       .  S
Zr1191     O1200   2.365       .  S
Zr1191     O1203   2.373       .  S
Zr1191     O1201   2.375       .  S
O1192      H1212   0.990       .  S
O1192      H1217   0.990       .  S
O1193      H1213   0.990       .  S
Zr1194     O1731   2.433       .  S
Zr1194     O1736   2.367   1_545  S
Zr1194     O1735   2.371   1_545  S
O1195     Zr1730   2.432       .  S
O1195      H1211   0.990       .  S
O1196      H1210   0.990       .  S
Zr1197     O1738   2.381       .  S
Zr1198     O1716   2.403   1_545  S
Zr1198     O1735   2.385   1_545  S
Zr1198     O1737   2.381   1_545  S
O1199     Zr1730   2.376       .  S
O1199     Zr1734   2.385       .  S
O1199      H1207   0.966       .  S
O1200     Zr1730   2.370       .  S
O1201     Zr1734   2.381       .  S
O1202     Zr1733   2.383   1_545  S
O1202      H1206   0.966       .  S
O1203      H1208   0.966       .  S
C1221      C1222   1.405       .  A
C1221      C1226   1.397       .  A
C1221      H1228   1.084       .  S
C1222      C1223   1.411       .  A
C1223      C1224   1.396       .  A
C1223     Br1230   1.923       .  S
C1224      C1225   1.408       .  A
C1224      H1229   1.081       .  S
C1225      C1226   1.416       .  A
C1226     Br1227   1.924       .  S
C1231      C1232   1.401       .  A
C1231      C1236   1.394       .  A
C1231      H1238   1.084       .  S
C1232      C1233   1.412       .  A
C1233      C1234   1.397       .  A
C1233     Br1240   1.921       .  S
C1234      C1235   1.399       .  A
C1234      H1239   1.084       .  S
C1235      C1236   1.401       .  A
C1236     Br1237   1.913       .  S
C1241      C1242   1.404       .  A
C1241      C1246   1.395       .  A
C1241      H1248   1.084       .  S
C1242      C1243   1.412       .  A
C1243      C1244   1.394       .  A
C1243     Br1250   1.920       .  S
C1244      C1245   1.402       .  A
C1244      H1249   1.084       .  S
C1245      C1246   1.407       .  A
C1246     Br1247   1.918       .  S
C1251      C1252   1.402       .  A
C1251      C1256   1.402       .  A
C1251      H1258   1.084       .  S
C1252      C1253   1.405       .  A
C1253      C1254   1.392       .  A
C1253     Br1260   1.919       .  S
C1254      C1255   1.404       .  A
C1254      H1259   1.084       .  S
C1255      C1256   1.415       .  A
C1256     Br1257   1.920       .  S
C1261      C1262   1.403       .  A
C1261      C1266   1.402       .  A
C1261      H1268   1.084       .  S
C1262      C1263   1.409       .  A
C1263      C1264   1.390       .  A
C1263     Br1270   1.924       .  S
C1264      C1265   1.406       .  A
C1264      H1269   1.083       .  S
C1265      C1266   1.417       .  A
C1266     Br1267   1.920       .  S
C1271      C1272   1.404       .  A
C1271      C1276   1.394       .  A
C1271      H1278   1.084       .  S
C1272      C1273   1.411       .  A
C1273      C1274   1.399       .  A
C1273     Br1280   1.919       .  S
C1274      C1275   1.403       .  A
C1274      H1279   1.084       .  S
C1275      C1276   1.407       .  A
C1276     Br1277   1.913       .  S
C1281      C1282   1.402       .  A
C1281      C1286   1.401       .  A
C1281      H1288   1.083       .  S
C1282      C1283   1.405       .  A
C1283      C1284   1.389       .  A
C1283     Br1290   1.922       .  S
C1284      C1285   1.405       .  A
C1284      H1289   1.084       .  S
C1285      C1286   1.412       .  A
C1286     Br1287   1.920       .  S
C1291      C1292   1.402       .  A
C1291      C1296   1.400       .  A
C1291      H1298   1.084       .  S
C1292      C1293   1.407       .  A
C1293      C1294   1.395       .  A
C1293     Br1300   1.920       .  S
C1294      C1295   1.406       .  A
C1294      H1299   1.083       .  S
C1295      C1296   1.418       .  A
C1296     Br1297   1.922       .  S
C1301      C1302   1.401       .  A
C1301      C1306   1.394       .  A
C1301      H1308   1.083       .  S
C1302      C1303   1.406       .  A
C1303      C1304   1.399       .  A
C1303     Br1846   1.919   1_545  S
C1304      C1305   1.407       .  A
C1304      H1309   1.083       .  S
C1305      C1306   1.410       .  A
C1306     Br1307   1.921       .  S
Br1310     C1839   1.920       .  S
C1311      C1312   1.402       .  A
C1311      C1316   1.394       .  A
C1311      H1318   1.084       .  S
C1312      C1341   1.476       .  S
C1312      C1581   1.410       .  A
C1313      C1580   1.413       .  A
C1313      C1314   1.402       .  A
C1313     Br1320   1.920   1_556  S
C1314      C1583   1.404       .  A
C1314      H1319   1.084   1_556  S
C1315      C1582   1.405       .  A
C1315      C1316   1.411       .  A
C1316     Br1317   1.921   1_545  S
C1321      C1322   1.399       .  A
C1321      C1594   1.392       .  A
C1321      H1596   1.083       .  S
C1322      C1323   1.411       .  A
C1323      C1324   1.407       .  A
C1323     Br1330   1.920       .  S
C1324      C1325   1.409       .  A
C1324      H1329   1.083       .  S
C1325      C1343   1.484       .  S
C1325      C1594   1.413       .  A
C1326      C1589   1.393   1_554  A
C1326      C1593   1.412   1_554  A
C1326     Br1327   1.923       .  S
H1328      C1589   1.081       .  S
C1331      C1600   1.409       .  A
C1331      C1336   1.404       .  A
C1331      H1338   1.083   1_556  S
C1332      C1599   1.406       .  A
C1332      C1333   1.412       .  A
C1333      C1334   1.395       .  A
C1333     Br1340   1.924       .  S
C1334      C1335   1.410       .  A
C1334      H1339   1.082       .  S
C1335      C1345   1.495       .  S
C1335      C1604   1.417       .  A
C1336      C1603   1.407       .  A
C1336     Br1337   1.917   1_556  S
C1341      N1342   1.363       .  A
C1341      N1346   1.362       .  A
N1342      C1343   1.360       .  A
C1343      N1344   1.354       .  A
N1344      C1345   1.353       .  A
C1345      N1346   1.355       .  A
C1347      N1348   1.358       .  A
C1347      N1352   1.359       .  A
C1347      C1550   1.469       .  S
N1348      C1349   1.358       .  A
C1349      N1350   1.357       .  A
C1349      C1563   1.486       .  S
N1350      C1351   1.355       .  A
C1351      N1352   1.357       .  A
C1351      C1573   1.481       .  S
C1353      N1354   1.359       .  A
C1353      N1358   1.361       .  A
C1353      C1540   1.472       .  S
N1354      C1355   1.354       .  A
C1355      N1356   1.352       .  A
C1355      C1530   1.469       .  S
N1356      C1357   1.353       .  A
C1357      N1358   1.358       .  A
C1357      C1523   1.468       .  S
C1359      N1360   1.360       .  A
C1359      N1364   1.356       .  A
C1359      C1510   1.473       .  S
N1360      C1361   1.360       .  A
C1361      N1362   1.356       .  A
C1361      C1493   1.494       .  S
N1362      C1363   1.357       .  A
C1363      N1364   1.354       .  A
C1363      C1500   1.475       .  S
O1365     Zr1377   2.437       .  S
O1365      C1367   1.287       .  A
O1366     Zr1403   2.414       .  S
O1366      C1367   1.285       .  A
C1367      C1543   1.470       .  S
O1368     Zr1380   2.446       .  S
O1368      C1370   1.288       .  A
O1369      C1370   1.283       .  A
C1370      C1520   1.463       .  S
O1371     Zr1380   2.438       .  S
O1371      C1373   1.287       .  A
O1372     Zr1403   2.437       .  S
O1372      C1909   1.288       .  A
C1373      C1600   1.478       .  S
C1373      O1908   1.285       .  A
O1374     Zr1377   2.457       .  S
O1375     Zr1404   2.422   1_565  S
O1375      C1912   1.286       .  A
C1376      C1452   1.472   1_655  S
C1376      O1911   1.287       .  A
Zr1377     O1378   2.434       .  S
Zr1377     O1383   2.381       .  S
Zr1377     O1920   2.365       .  S
O1378      H1421   0.990       .  S
O1379      H1420   0.990       .  S
Zr1380     O1381   2.434       .  S
Zr1380     O1382   2.435       .  S
Zr1380     O1384   2.359       .  S
Zr1380     O1919   2.372       .  S
Zr1380     O1408   2.371       .  S
Zr1380     O1410   2.371       .  S
O1381      H1422   0.989       .  S
O1381      H1425   0.990       .  S
O1382      H1415   0.990       .  S
O1383     Zr1916   2.372       .  S
O1383     Zr1403   2.381       .  S
O1384     Zr1913   2.369   1_545  S
O1384      H1411   0.965       .  S
O1385     Zr1397   2.426       .  S
O1385      C1387   1.286       .  A
O1386     Zr1940   2.415       .  S
O1386      C1387   1.283       .  A
C1387      C1533   1.480       .  S
O1388      C1926   1.290       .  A
O1389     Zr1403   2.416   1_554  S
C1390      C1438   1.467       .  S
C1390      O1924   1.290       .  A
O1391     Zr1400   2.446       .  S
O1391      C1393   1.288       .  A
O1392     Zr1404   2.415       .  S
O1392      C1393   1.285       .  A
C1393      C1583   1.473       .  S
O1394     Zr1397   2.435       .  S
O1394      C1396   1.288       .  A
O1395      C1396   1.286       .  A
C1396      C1590   1.478       .  S
Zr1397     O1398   2.438       .  S
Zr1397     O1399   2.436       .  S
Zr1397     O1405   2.371       .  S
Zr1397     O1406   2.362       .  S
Zr1397     O1409   2.366       .  S
Zr1397     O1407   2.375       .  S
O1398      H1418   0.990       .  S
O1398      H1423   0.990       .  S
O1399      H1419   0.990       .  S
Zr1400     O1669   2.434   1_556  S
Zr1400     O1942   2.370   1_545  S
Zr1400     O1941   2.372   1_545  S
O1401     Zr1668   2.434       .  S
O1401      H1417   0.990       .  S
O1402      H1416   0.990       .  S
Zr1403     O1944   2.382       .  S
Zr1404     O1922   2.413   1_545  S
Zr1404     O1941   2.384   1_545  S
Zr1404     O1943   2.381   1_545  S
O1405     Zr1936   2.369       .  S
O1405     Zr1940   2.381       .  S
O1405      H1413   0.966       .  S
O1406     Zr1936   2.370       .  S
O1407     Zr1940   2.380       .  S
O1408     Zr1939   2.385   1_545  S
O1408      H1412   0.966       .  S
O1409      H1414   0.966       .  S
O1427     Zr1439   2.440       .  S
O1427      C1429   1.287       .  A
O1428     Zr1465   2.417       .  S
O1428      C1429   1.286       .  A
C1429      C1513   1.475       .  S
O1430     Zr1442   2.438       .  S
O1430      C1432   1.288       .  A
O1431      C1432   1.285       .  A
C1432      C1490   1.485       .  S
O1433     Zr1442   2.430       .  S
O1433      C1435   1.286       .  A
O1434     Zr1465   2.418       .  S
O1434      C1971   1.284       .  A
C1435      C1570   1.465       .  S
C1435      O1970   1.284       .  A
O1436     Zr1439   2.443       .  S
O1437     Zr1466   2.414       .  S
O1437      C1974   1.284   1_545  A
C1438      O1973   1.284       .  A
Zr1439     O1440   2.434       .  S
Zr1439     O1445   2.375       .  S
Zr1439     O1982   2.373       .  S
O1440      H1483   0.990       .  S
O1441      H1482   0.990       .  S
Zr1442     O1443   2.435       .  S
Zr1442     O1444   2.433       .  S
Zr1442     O1446   2.363       .  S
Zr1442     O1981   2.370   1_545  S
Zr1442     O1470   2.379       .  S
Zr1442     O1472   2.375       .  S
O1443      H1484   0.990       .  S
O1443      H1487   0.990       .  S
O1444      H1477   0.990       .  S
O1445     Zr1978   2.369       .  S
O1445     Zr1465   2.377       .  S
O1446     Zr1975   2.373   1_545  S
O1446      H1473   0.966       .  S
O1447     Zr1459   2.441       .  S
O1447      C1449   1.288       .  A
O1448     Zr2002   2.405       .  S
O1448      C1449   1.282       .  A
C1449      C1503   1.461       .  S
O1450     Zr1462   2.452       .  S
O1450      C1988   1.290   1_545  A
O1451     Zr1465   2.413       .  S
C1452      O1986   1.290   1_455  A
O1453     Zr1462   2.449       .  S
O1453      C1455   1.288       .  A
O1454     Zr1466   2.410       .  S
O1454      C1455   1.285       .  A
C1455      C1553   1.483       .  S
O1456     Zr1459   2.448       .  S
O1456      C1458   1.289       .  A
O1457      C1458   1.284       .  A
C1458      C1560   1.476       .  S
Zr1459     O1460   2.436       .  S
Zr1459     O1461   2.434       .  S
Zr1459     O1467   2.370       .  S
Zr1459     O1468   2.364       .  S
Zr1459     O1471   2.370       .  S
Zr1459     O1469   2.368       .  S
O1460      H1480   0.990       .  S
O1460      H1485   0.990       .  S
O1461      H1481   0.990       .  S
Zr1462     O1999   2.431       .  S
Zr1462     O2004   2.369   1_545  S
Zr1462     O2003   2.375   1_545  S
O1463     Zr1998   2.433       .  S
O1463      H1479   0.990       .  S
O1464      H1478   0.990       .  S
Zr1465     O2006   2.383       .  S
Zr1466     O1984   2.404   1_545  S
Zr1466     O2003   2.383   1_545  S
Zr1466     O2005   2.382   1_545  S
O1467     Zr1998   2.376       .  S
O1467     Zr2002   2.382       .  S
O1467      H1475   0.966       .  S
O1468     Zr1998   2.368       .  S
O1469     Zr2002   2.379       .  S
O1470     Zr2001   2.383   1_545  S
O1470      H1474   0.966       .  S
O1471      H1476   0.966       .  S
C1489      C1490   1.404       .  A
C1489      C1494   1.397       .  A
C1489      H1496   1.084       .  S
C1490      C1491   1.412       .  A
C1491      C1492   1.401       .  A
C1491     Br1498   1.922       .  S
C1492      C1493   1.409       .  A
C1492      H1497   1.083       .  S
C1493      C1494   1.418       .  A
C1494     Br1495   1.922       .  S
C1499      C1500   1.405       .  A
C1499      C1504   1.395       .  A
C1499      H1506   1.083       .  S
C1500      C1501   1.416       .  A
C1501      C1502   1.398       .  A
C1501     Br1508   1.922       .  S
C1502      C1503   1.398       .  A
C1502      H1507   1.084       .  S
C1503      C1504   1.403       .  A
C1504     Br1505   1.916       .  S
C1509      C1510   1.404       .  A
C1509      C1514   1.400       .  A
C1509      H1516   1.084       .  S
C1510      C1511   1.410       .  A
C1511      C1512   1.395       .  A
C1511     Br1518   1.921       .  S
C1512      C1513   1.403       .  A
C1512      H1517   1.084       .  S
C1513      C1514   1.412       .  A
C1514     Br1515   1.920       .  S
C1519      C1520   1.400       .  A
C1519      C1524   1.399       .  A
C1519      H1526   1.084       .  S
C1520      C1521   1.405       .  A
C1521      C1522   1.395       .  A
C1521     Br1528   1.918       .  S
C1522      C1523   1.402       .  A
C1522      H1527   1.084       .  S
C1523      C1524   1.412       .  A
C1524     Br1525   1.920       .  S
C1529      C1530   1.402       .  A
C1529      C1534   1.400       .  A
C1529      H1536   1.084       .  S
C1530      C1531   1.409       .  A
C1531      C1532   1.389       .  A
C1531     Br1538   1.924       .  S
C1532      C1533   1.405       .  A
C1532      H1537   1.084       .  S
C1533      C1534   1.416       .  A
C1534     Br1535   1.921       .  S
C1539      C1540   1.402       .  A
C1539      C1544   1.391       .  A
C1539      H1546   1.084       .  S
C1540      C1541   1.410       .  A
C1541      C1542   1.400       .  A
C1541     Br1548   1.919       .  S
C1542      C1543   1.404       .  A
C1542      H1547   1.084       .  S
C1543      C1544   1.407       .  A
C1544     Br1545   1.915       .  S
C1549      C1550   1.403       .  A
C1549      C1554   1.404       .  A
C1549      H1556   1.084       .  S
C1550      C1551   1.406       .  A
C1551      C1552   1.392       .  A
C1551     Br1558   1.922       .  S
C1552      C1553   1.406       .  A
C1552      H1557   1.084       .  S
C1553      C1554   1.415       .  A
C1554     Br1555   1.920       .  S
C1559      C1560   1.403       .  A
C1559      C1564   1.399       .  A
C1559      H1566   1.084       .  S
C1560      C1561   1.408       .  A
C1561      C1562   1.396       .  A
C1561     Br1568   1.921       .  S
C1562      C1563   1.408       .  A
C1562      H1567   1.082       .  S
C1563      C1564   1.416       .  A
C1564     Br1565   1.922       .  S
C1569      C1570   1.399       .  A
C1569      C1574   1.393       .  A
C1569      H1576   1.084       .  S
C1570      C1571   1.406       .  A
C1571      C1572   1.400       .  A
C1571     Br2114   1.921   1_545  S
C1572      C1573   1.409       .  A
C1572      H1577   1.083       .  S
C1573      C1574   1.413       .  A
C1574     Br1575   1.921       .  S
Br1578     C2107   1.920       .  S
C1579      C1580   1.406       .  A
C1579      C1584   1.394       .  A
C1579      H1586   1.083       .  S
C1581      C1582   1.401       .  A
C1581     Br1588   1.918       .  S
C1582      H1587   1.084       .  S
C1583      C1584   1.408       .  A
C1584     Br1585   1.921       .  S
C1589      C1590   1.400       .  A
C1590      C1591   1.410       .  A
C1591      C1592   1.406       .  A
C1591     Br1598   1.920   1_655  S
C1592      C1593   1.409       .  A
C1592      H1597   1.083       .  S
C1594     Br1595   1.923       .  S
C1599      C1604   1.400       .  A
C1599      H1606   1.082       .  S
C1600      C1601   1.412       .  A
C1601      C1602   1.391       .  A
C1601     Br1608   1.920       .  S
C1602      C1603   1.398       .  A
C1602      H1607   1.084       .  S
C1604     Br1605   1.922       .  S
C1609      N1610   1.362       .  A
C1609      N1614   1.363       .  A
C1609      C2116   1.480       .  S
N1610      C1611   1.358       .  A
C1611      N1612   1.352       .  A
C1611      C2129   1.484       .  S
N1612      C1613   1.354       .  A
C1613      N1614   1.355       .  A
C1613      C2139   1.491       .  S
C1615      N1616   1.356       .  A
C1615      N1620   1.358       .  A
C1615      C1818   1.466       .  S
N1616      C1617   1.355       .  A
C1617      N1618   1.357       .  A
C1617      C1831   1.479       .  S
N1618      C1619   1.357       .  A
C1619      N1620   1.356       .  A
C1619      C1841   1.478       .  S
C1621      N1622   1.361       .  A
C1621      N1626   1.361       .  A
C1621      C1808   1.473       .  S
N1622      C1623   1.356       .  A
C1623      N1624   1.351       .  A
C1623      C1798   1.473       .  S
N1624      C1625   1.352       .  A
C1625      N1626   1.356       .  A
C1625      C1791   1.470       .  S
C1627      N1628   1.358       .  A
C1627      N1632   1.357       .  A
C1627      C1778   1.472       .  S
N1628      C1629   1.359       .  A
C1629      N1630   1.353       .  A
C1629      C1761   1.486       .  S
N1630      C1631   1.353       .  A
C1631      N1632   1.352       .  A
C1631      C1768   1.464       .  S
O1633     Zr1645   2.432       .  S
O1633      C1635   1.286       .  A
O1634     Zr1671   2.420       .  S
O1634      C1635   1.286       .  A
C1635      C1811   1.467       .  S
O1636     Zr1648   2.442       .  S
O1636      C1638   1.288       .  A
O1637      C1638   1.283       .  A
C1638      C1788   1.465       .  S
O1639     Zr1648   2.428       .  S
O1639      C1641   1.284       .  A
O1640     Zr1671   2.423   1_545  S
C1641      C1868   1.487       .  S
O1642     Zr1645   2.451       .  S
O1643     Zr1672   2.408       .  S
C1644      C1720   1.473       .  S
Zr1645     O1646   2.434       .  S
Zr1645     O1651   2.382       .  S
O1646      H1689   0.990       .  S
O1647      H1688   0.990       .  S
Zr1648     O1649   2.433       .  S
Zr1648     O1650   2.435       .  S
Zr1648     O1652   2.359       .  S
Zr1648     O1676   2.368       .  S
Zr1648     O1678   2.365       .  S
O1649      H1690   0.990       .  S
O1649      H1693   0.990       .  S
O1650      H1683   0.990       .  S
O1651     Zr1671   2.383       .  S
O1652      H1679   0.965       .  S
O1653     Zr1665   2.420       .  S
O1653      C1655   1.285       .  A
O1654      C1655   1.284       .  A
C1655      C1801   1.479       .  S
O1656     Zr1936   2.438   1_554  S
O1657     Zr1671   2.418       .  S
C1658      C1706   1.463       .  S
O1659     Zr1668   2.442       .  S
O1659      C1661   1.288       .  A
O1660     Zr1672   2.406       .  S
O1660      C1661   1.283       .  A
C1661      C1851   1.468       .  S
O1662     Zr1665   2.439       .  S
O1662      C1664   1.289       .  A
O1663      C1664   1.285       .  A
C1664      C1858   1.479       .  S
Zr1665     O1666   2.439       .  S
Zr1665     O1667   2.436       .  S
Zr1665     O1673   2.374       .  S
Zr1665     O1674   2.365       .  S
Zr1665     O1677   2.361       .  S
Zr1665     O1675   2.378       .  S
O1666      H1686   0.990       .  S
O1666      H1691   0.990       .  S
O1667      H1687   0.990       .  S
Zr1668     O1924   2.444       .  S
O1669      H1685   0.990   1_545  S
O1670      H1684   0.990       .  S
O1673      H1681   0.966       .  S
O1676      H1680   0.966       .  S
O1677      H1682   0.966       .  S
O1695     Zr1707   2.433       .  S
O1695      C1697   1.285       .  A
O1696     Zr1733   2.404       .  S
O1696      C1697   1.283       .  A
C1697      C1781   1.463       .  S
O1698     Zr1710   2.432       .  S
O1698      C1700   1.287       .  A
O1699      C1700   1.283       .  A
C1700      C1758   1.476       .  S
O1701     Zr1710   2.424       .  S
O1701      C1703   1.285       .  A
O1702     Zr1733   2.425   1_545  S
C1703      C1838   1.470       .  S
O1704     Zr1707   2.442       .  S
O1705     Zr1734   2.417       .  S
Zr1707     O1708   2.434       .  S
Zr1707     O1713   2.374       .  S
O1708      H1751   0.990   1_565  S
O1709      H1750   0.990   1_655  S
Zr1710     O1711   2.435       .  S
Zr1710     O1712   2.434       .  S
Zr1710     O1714   2.367       .  S
Zr1710     O1738   2.372       .  S
Zr1710     O1740   2.371       .  S
O1711      H1752   0.990       .  S
O1711      H1755   0.990       .  S
O1712      H1745   0.990       .  S
O1713     Zr1733   2.377       .  S
O1714      H1741   0.966       .  S
O1715     Zr1727   2.440       .  S
O1715      C1717   1.288       .  A
O1716      C1717   1.280       .  A
C1717      C1771   1.457       .  S
O1718     Zr1730   2.460       .  S
O1719     Zr1733   2.408       .  S
O1721     Zr1730   2.451       .  S
O1721      C1723   1.289       .  A
O1722     Zr1734   2.402       .  S
O1722      C1723   1.283       .  A
C1723      C1821   1.471       .  S
O1724     Zr1727   2.444       .  S
O1724      C1726   1.288       .  A
O1725      C1726   1.284       .  A
C1726      C1828   1.470       .  S
Zr1727     O1728   2.436       .  S
Zr1727     O1729   2.436       .  S
Zr1727     O1735   2.367       .  S
Zr1727     O1736   2.366       .  S
Zr1727     O1739   2.375       .  S
Zr1727     O1737   2.374       .  S
O1728      H1748   0.990       .  S
O1728      H1753   0.990       .  S
O1729      H1749   0.990       .  S
O1731      H1747   0.990   1_545  S
O1732      H1746   0.990       .  S
O1735      H1743   0.966       .  S
O1738      H1742   0.966       .  S
O1739      H1744   0.966       .  S
C1757      C1758   1.403       .  A
C1757      C1762   1.396       .  A
C1757      H1764   1.084       .  S
C1758      C1759   1.410       .  A
C1759      C1760   1.395       .  A
C1759     Br1766   1.923       .  S
C1760      C1761   1.407       .  A
C1760      H1765   1.080       .  S
C1761      C1762   1.417       .  A
C1762     Br1763   1.925       .  S
C1767      C1768   1.401       .  A
C1767      C1772   1.391       .  A
C1767      H1774   1.084       .  S
C1768      C1769   1.412       .  A
C1769      C1770   1.399       .  A
C1769     Br1776   1.920       .  S
C1770      C1771   1.400       .  A
C1770      H1775   1.084       .  S
C1771      C1772   1.399       .  A
C1772     Br1773   1.910       .  S
C1777      C1778   1.406       .  A
C1777      C1782   1.396       .  A
C1777      H1784   1.084       .  S
C1778      C1779   1.413       .  A
C1779      C1780   1.391       .  A
C1779     Br1786   1.918       .  S
C1780      C1781   1.399       .  A
C1780      H1785   1.084       .  S
C1781      C1782   1.406       .  A
C1782     Br1783   1.919       .  S
C1787      C1788   1.402       .  A
C1787      C1792   1.402       .  A
C1787      H1794   1.084       .  S
C1788      C1789   1.404       .  A
C1789      C1790   1.392       .  A
C1789     Br1796   1.919       .  S
C1790      C1791   1.402       .  A
C1790      H1795   1.084       .  S
C1791      C1792   1.413       .  A
C1792     Br1793   1.920       .  S
C1797      C1798   1.404       .  A
C1797      C1802   1.401       .  A
C1797      H1804   1.083       .  S
C1798      C1799   1.411       .  A
C1799      C1800   1.388       .  A
C1799     Br1806   1.925       .  S
C1800      C1801   1.404       .  A
C1800      H1805   1.083       .  S
C1801      C1802   1.415       .  A
C1802     Br1803   1.922       .  S
C1807      C1808   1.404       .  A
C1807      C1812   1.393       .  A
C1807      H1814   1.083       .  S
C1808      C1809   1.411       .  A
C1809      C1810   1.397       .  A
C1809     Br1816   1.920       .  S
C1810      C1811   1.402       .  A
C1810      H1815   1.084       .  S
C1811      C1812   1.405       .  A
C1812     Br1813   1.913       .  S
C1817      C1818   1.404       .  A
C1817      C1822   1.402       .  A
C1817      H1824   1.084       .  S
C1818      C1819   1.407       .  A
C1819      C1820   1.390       .  A
C1819     Br1826   1.922       .  S
C1820      C1821   1.403       .  A
C1820      H1825   1.084       .  S
C1821      C1822   1.410       .  A
C1822     Br1823   1.917       .  S
C1827      C1828   1.401       .  A
C1827      C1832   1.398       .  A
C1827      H1834   1.084       .  S
C1828      C1829   1.407       .  A
C1829      C1830   1.396       .  A
C1829     Br1836   1.920       .  S
C1830      C1831   1.405       .  A
C1830      H1835   1.083       .  S
C1831      C1832   1.416       .  A
C1832     Br1833   1.923       .  S
C1837      C1838   1.402       .  A
C1837      C1842   1.393       .  A
C1837      H1844   1.084       .  S
C1838      C1839   1.408       .  A
C1839      C1840   1.401       .  A
C1840      C1841   1.408       .  A
C1840      H1845   1.082       .  S
C1841      C1842   1.410       .  A
C1842     Br1843   1.921       .  S
C1847      C1848   1.404       .  A
C1847      C1852   1.393       .  A
C1847      H1854   1.084       .  S
C1848      C1877   1.476       .  S
C1848      C2117   1.413       .  A
C1849      C2116   1.414       .  A
C1849      C1850   1.401       .  A
C1849     Br1856   1.921   1_556  S
C1850      C2119   1.403       .  A
C1850      H1855   1.084   1_556  S
C1851      C2118   1.402       .  A
C1851      C1852   1.408       .  A
C1852     Br1853   1.921       .  S
C1857      C1858   1.401       .  A
C1857      C2130   1.392       .  A
C1857      H2132   1.083       .  S
C1858      C1859   1.413       .  A
C1859      C1860   1.404       .  A
C1859     Br1866   1.919       .  S
C1860      C1861   1.406       .  A
C1860      H1865   1.083       .  S
C1861      C1879   1.481       .  S
C1861      C2130   1.412       .  A
C1862      C2125   1.394   1_554  A
C1862      C2129   1.413   1_554  A
C1862     Br1863   1.926       .  S
H1864      C2125   1.081       .  S
C1867      C2136   1.410       .  A
C1867      C1872   1.406       .  A
C1867      H1874   1.082       .  S
C1868      C2135   1.409       .  A
C1868      C1869   1.415       .  A
C1869      C1870   1.389       .  A
C1869     Br1876   1.927       .  S
C1870      C1871   1.407       .  A
C1870      H1875   1.083       .  S
C1871      C1881   1.488       .  S
C1871      C2140   1.413       .  A
C1872      C2139   1.415       .  A
C1872     Br1873   1.921   1_556  S
C1877      N1878   1.363       .  A
C1877      N1882   1.363       .  A
N1878      C1879   1.357       .  A
C1879      N1880   1.350       .  A
N1880      C1881   1.350       .  A
C1881      N1882   1.355       .  A
C1883      N1884   1.356       .  A
C1883      N1888   1.357       .  A
C1883      C2086   1.461       .  S
N1884      C1885   1.355       .  A
C1885      N1886   1.356       .  A
C1885      C2099   1.482       .  S
N1886      C1887   1.356       .  A
C1887      N1888   1.357       .  A
C1887      C2109   1.478       .  S
C1889      N1890   1.362       .  A
C1889      N1894   1.361       .  A
C1889      C2076   1.476       .  S
N1890      C1891   1.356       .  A
C1891      N1892   1.354       .  A
C1891      C2066   1.472       .  S
N1892      C1893   1.354       .  A
C1893      N1894   1.358       .  A
C1893      C2059   1.472       .  S
C1895      N1896   1.358       .  A
C1895      N1900   1.356       .  A
C1895      C2046   1.469       .  S
N1896      C1897   1.359       .  A
C1897      N1898   1.355       .  A
C1897      C2029   1.490       .  S
N1898      C1899   1.357       .  A
C1899      N1900   1.355       .  A
C1899      C2036   1.476       .  S
O1901     Zr1913   2.447       .  S
O1901      C1903   1.289       .  A
O1902     Zr1939   2.416       .  S
O1902      C1903   1.285       .  A
C1903      C2079   1.477       .  S
O1904     Zr1916   2.441       .  S
O1904      C1906   1.288       .  A
O1905      C1906   1.284       .  A
C1906      C2056   1.467       .  S
O1907     Zr1916   2.426       .  S
O1907      C1909   1.283       .  A
O1908     Zr1939   2.419   1_545  S
C1909      C2136   1.494       .  S
O1910     Zr1913   2.451       .  S
O1911     Zr1940   2.426       .  S
C1912      C1988   1.473       .  S
Zr1913     O1914   2.434       .  S
Zr1913     O1919   2.380   1_565  S
O1914      H1957   0.990   1_565  S
O1915      H1956   0.990       .  S
Zr1916     O1917   2.435       .  S
Zr1916     O1918   2.433       .  S
Zr1916     O1920   2.361       .  S
Zr1916     O1944   2.371       .  S
Zr1916     O1946   2.365       .  S
O1917      H1958   0.990       .  S
O1917      H1961   0.990       .  S
O1918      H1951   0.990       .  S
O1919     Zr1939   2.382   1_545  S
O1920      H1947   0.965       .  S
O1921     Zr1933   2.430       .  S
O1921      C1923   1.287       .  A
O1922      C1923   1.283       .  A
C1923      C2069   1.478       .  S
O1925     Zr1939   2.416       .  S
C1926      C1974   1.468       .  S
O1927     Zr1936   2.447       .  S
O1927      C1929   1.288       .  A
O1928     Zr1940   2.413       .  S
O1928      C1929   1.284       .  A
C1929      C2119   1.472       .  S
O1930     Zr1933   2.443       .  S
O1930      C1932   1.289       .  A
O1931      C1932   1.286       .  A
C1932      C2126   1.481       .  S
Zr1933     O1934   2.436       .  S
Zr1933     O1935   2.434       .  S
Zr1933     O1941   2.371       .  S
Zr1933     O1942   2.357       .  S
Zr1933     O1945   2.366       .  S
Zr1933     O1943   2.376       .  S
O1934      H1954   0.990       .  S
O1934      H1959   0.990       .  S
O1935      H1955   0.990       .  S
O1937      H1953   0.990       .  S
O1938      H1952   0.990       .  S
O1941      H1949   0.966       .  S
O1944      H1948   0.966       .  S
O1945      H1950   0.966       .  S
O1963     Zr1975   2.451       .  S
O1963      C1965   1.289       .  A
O1964     Zr2001   2.406       .  S
O1964      C1965   1.284       .  A
C1965      C2049   1.478       .  S
O1966     Zr1978   2.436       .  S
O1966      C1968   1.287       .  A
O1967      C1968   1.283       .  A
C1968      C2026   1.478       .  S
O1969     Zr1978   2.434       .  S
O1969      C1971   1.286       .  A
O1970     Zr2001   2.417   1_545  S
C1971      C2106   1.467       .  S
O1972     Zr1975   2.450       .  S
O1973     Zr2002   2.411       .  S
Zr1975     O1976   2.433       .  S
Zr1975     O1981   2.375       .  S
O1976      H2019   0.990   1_565  S
O1977      H2018   0.990       .  S
Zr1978     O1979   2.438       .  S
Zr1978     O1980   2.434       .  S
Zr1978     O1982   2.371       .  S
Zr1978     O2006   2.374       .  S
Zr1978     O2008   2.376       .  S
O1979      H2020   0.990       .  S
O1979      H2023   0.990       .  S
O1980      H2013   0.990       .  S
O1981     Zr2001   2.375       .  S
O1982      H2009   0.966       .  S
O1983     Zr1995   2.449       .  S
O1983      C1985   1.290       .  A
O1984      C1985   1.281       .  A
C1985      C2039   1.466       .  S
O1986     Zr1998   2.451       .  S
O1987     Zr2001   2.399       .  S
O1989     Zr1998   2.436       .  S
O1989      C1991   1.285       .  A
O1990     Zr2002   2.409       .  S
O1990      C1991   1.285       .  A
C1991      C2089   1.481       .  S
O1992     Zr1995   2.444       .  S
O1992      C1994   1.288       .  A
O1993      C1994   1.284       .  A
C1994      C2096   1.473       .  S
Zr1995     O1996   2.435       .  S
Zr1995     O1997   2.436       .  S
Zr1995     O2003   2.368       .  S
Zr1995     O2004   2.363       .  S
Zr1995     O2007   2.374       .  S
Zr1995     O2005   2.371       .  S
O1996      H2016   0.990       .  S
O1996      H2021   0.990       .  S
O1997      H2017   0.990       .  S
O1999      H2015   0.990   1_545  S
O2000      H2014   0.990       .  S
O2003      H2011   0.966       .  S
O2006      H2010   0.966       .  S
O2007      H2012   0.966       .  S
C2025      C2026   1.402       .  A
C2025      C2030   1.395       .  A
C2025      H2032   1.084       .  S
C2026      C2027   1.410       .  A
C2027      C2028   1.399       .  A
C2027     Br2034   1.922       .  S
C2028      C2029   1.410       .  A
C2028      H2033   1.083       .  S
C2029      C2030   1.417       .  A
C2030     Br2031   1.922       .  S
C2035      C2036   1.405       .  A
C2035      C2040   1.395       .  A
C2035      H2042   1.083       .  S
C2036      C2037   1.416       .  A
C2037      C2038   1.399       .  A
C2037     Br2044   1.922       .  S
C2038      C2039   1.400       .  A
C2038      H2043   1.084       .  S
C2039      C2040   1.402       .  A
C2040     Br2041   1.914       .  S
C2045      C2046   1.402       .  A
C2045      C2050   1.400       .  A
C2045      H2052   1.084       .  S
C2046      C2047   1.408       .  A
C2047      C2048   1.394       .  A
C2047     Br2054   1.922       .  S
C2048      C2049   1.405       .  A
C2048      H2053   1.084       .  S
C2049      C2050   1.412       .  A
C2050     Br2051   1.919       .  S
C2055      C2056   1.401       .  A
C2055      C2060   1.400       .  A
C2055      H2062   1.084       .  S
C2056      C2057   1.406       .  A
C2057      C2058   1.396       .  A
C2057     Br2064   1.918       .  S
C2058      C2059   1.403       .  A
C2058      H2063   1.084       .  S
C2059      C2060   1.412       .  A
C2060     Br2061   1.921       .  S
C2065      C2066   1.403       .  A
C2065      C2070   1.403       .  A
C2065      H2072   1.083       .  S
C2066      C2067   1.409       .  A
C2067      C2068   1.391       .  A
C2067     Br2074   1.922       .  S
C2068      C2069   1.403       .  A
C2068      H2073   1.084       .  S
C2069      C2070   1.415       .  A
C2070     Br2071   1.919       .  S
C2075      C2076   1.401       .  A
C2075      C2080   1.392       .  A
C2075      H2082   1.084       .  S
C2076      C2077   1.411       .  A
C2077      C2078   1.404       .  A
C2077     Br2084   1.920       .  S
C2078      C2079   1.407       .  A
C2078      H2083   1.083       .  S
C2079      C2080   1.410       .  A
C2080     Br2081   1.919       .  S
C2085      C2086   1.400       .  A
C2085      C2090   1.401       .  A
C2085      H2092   1.084       .  S
C2086      C2087   1.404       .  A
C2087      C2088   1.389       .  A
C2087     Br2094   1.921       .  S
C2088      C2089   1.407       .  A
C2088      H2093   1.084       .  S
C2089      C2090   1.417       .  A
C2090     Br2091   1.921       .  S
C2095      C2096   1.401       .  A
C2095      C2100   1.397       .  A
C2095      H2102   1.084       .  S
C2096      C2097   1.408       .  A
C2097      C2098   1.396       .  A
C2097     Br2104   1.921       .  S
C2098      C2099   1.407       .  A
C2098      H2103   1.083       .  S
C2099      C2100   1.417       .  A
C2100     Br2101   1.923       .  S
C2105      C2106   1.400       .  A
C2105      C2110   1.393       .  A
C2105      H2112   1.083       .  S
C2106      C2107   1.407       .  A
C2107      C2108   1.400       .  A
C2108      C2109   1.409       .  A
C2108      H2113   1.083       .  S
C2109      C2110   1.412       .  A
C2110     Br2111   1.922       .  S
C2115      C2116   1.405       .  A
C2115      C2120   1.394       .  A
C2115      H2122   1.083       .  S
C2117      C2118   1.399       .  A
C2117     Br2124   1.921       .  S
C2118      H2123   1.084       .  S
C2119      C2120   1.408       .  A
C2120     Br2121   1.919       .  S
C2125      C2126   1.401       .  A
C2126      C2127   1.412       .  A
C2127      C2128   1.405       .  A
C2127     Br2134   1.919   1_655  S
C2128      C2129   1.408       .  A
C2128      H2133   1.083       .  S
C2130     Br2131   1.925       .  S
C2135      C2140   1.401       .  A
C2135      H2142   1.083       .  S
C2136      C2137   1.419       .  A
C2137      C2138   1.390       .  A
C2137     Br2144   1.927       .  S
C2138      C2139   1.404       .  A
C2138      H2143   1.083       .  S
C2140     Br2141   1.921       .  S
