geometry optimzed in LAMMPS
_audit_creation_date              2020-12-01 
_audit_creation_method            'lammps2cif' 
_symmetry_space_group_name_H-M    'P1' 
_symmetry_Int_Tables_number       1 
_symmetry_cell_setting            triclinic 
loop_ 
_symmetry_equiv_pos_as_xyz 
  x,y,z 
_cell_length_a                    28.36814404 
_cell_length_b                    28.024067314569606 
_cell_length_c                    48.43633319743653 
_cell_angle_alpha                 90.72962958081214 
_cell_angle_beta                  91.88227635635087 
_cell_angle_gamma                 90.59608773397744 
loop_ 
_atom_site_label 
_atom_site_type_symbol 
_atom_site_fract_x 
_atom_site_fract_y 
_atom_site_fract_z 
_atom_site_charge 
N1          N  0.27511234  0.25870067  0.39542821    -0.03000
C2          C  0.31647880  0.24581719  0.40820306    -0.00400
C3          C  0.33195488  0.28061356  0.42680551    -0.23300
C4          C  0.29953335  0.31613490  0.42583316    -0.23500
C5          C  0.26473105  0.30188869  0.40699779    -0.00500
H6          H  0.36254778  0.27913423  0.44050815     0.13300
H7          H  0.29903265  0.34752065  0.43898384     0.13300
Zn8        Zn  0.44095198  0.47431578  0.43295646     1.49700
Zn9        Zn  0.52001259  0.43886339  0.47657955     1.49400
Zn10       Zn  0.05183293  0.50636716  0.42895630     1.49100
Zn11       Zn  0.49007059  0.04183711  0.47427463     1.49500
O12         O  0.49902619  0.48897883  0.45337084    -1.83600
O13         O  0.40839266  0.41578800  0.45124633    -0.74300
O14         O  0.07984284  0.40354074  0.45863089    -0.74100
O15         O  0.02359602  0.51960503  0.39116373    -0.73600
O16         O  0.46690368  0.39333554  0.47984203    -0.74300
O17         O  0.45716150  0.46835324  0.39204882    -0.73900
O18         O  0.09655034  0.45135965  0.42419354    -0.74500
O19         O  0.04775564  0.07733004  0.48185251    -0.73900
O20         O  0.52998254  0.46858075  0.01526294    -0.74600
O21         O  0.09248633  0.05685619  0.44677516    -0.74000
O22         O  0.47584008  0.02161950  0.01313309    -0.74500
O23         O  0.44111209  0.08216193  0.45545190    -0.74400
O24         O  0.40140243  0.03025520  0.42823520    -0.74200
C25         C  0.42526794  0.38777763  0.46982207     0.77600
C26         C  0.10411878  0.41315469  0.43757507     0.78100
C27         C  0.48410553  0.49746475  0.37952874     0.77100
C28         C  0.08611429  0.08025606  0.46913233     0.77400
C29         C  0.50154462  0.49676627  0.02717192     0.78600
C30         C  0.40871585  0.07278219  0.43727232     0.77600
N31         N  0.27592905  0.21324591  0.51290275    -0.03000
C32         C  0.25703851  0.17362878  0.50021976    -0.00400
C33         C  0.28454753  0.15890503  0.47891562    -0.23300
C34         C  0.32125585  0.19064226  0.47791588    -0.23500
C35         C  0.31471202  0.22441497  0.49835526    -0.00500
H36         H  0.27634486  0.13039334  0.46430375     0.13300
H37         H  0.34850552  0.19084786  0.46292011     0.13300
N38         N  0.00099063  0.01377284  0.14383148    -0.03000
C39         C  0.48414334  0.05459729  0.15782642    -0.00400
C40         C  0.50979195  0.06336957  0.18188919    -0.23300
C41         C  0.03661319  0.52310368  0.18460554    -0.23500
C42         C  0.03094961  0.49262330  0.16224165    -0.00500
H43         H  0.50549540  0.09292762  0.19586005     0.13300
H44         H  0.06141561  0.51913765  0.20167732     0.13300
Zn45       Zn  0.24467194  0.18461854  0.22391931     1.49700
Zn46       Zn  0.28074625  0.26471542  0.18391398     1.49400
Zn47       Zn  0.17721133  0.23122394  0.17968336     1.49100
Zn48       Zn  0.21209029  0.28947478  0.23121097     1.49500
O49         O  0.22953169  0.24228160  0.20467430    -1.83600
O50         O  0.29884493  0.14992646  0.20323506    -0.74300
O51         O  0.25843736  0.27446725  0.14420668    -0.74100
O52         O  0.13504992  0.18247097  0.19751161    -0.73600
O53         O  0.32567512  0.21128115  0.17950627    -0.74300
O54         O  0.18333659  0.14655318  0.22777821    -0.73900
O55         O  0.20072814  0.21944558  0.14112679    -0.74500
O56         O  0.15950116  0.33077464  0.21455454    -0.73900
O57         O  0.31397497  0.32184920  0.20371488    -0.74600
O58         O  0.14106939  0.29143937  0.17544223    -0.74000
O59         O  0.26647451  0.33430915  0.23835765    -0.74500
O60         O  0.20416086  0.25878696  0.26862956    -0.74400
O61         O  0.26115288  0.20514577  0.26372957    -0.74200
C62         C  0.32834332  0.16782284  0.18649586     0.77600
C63         C  0.23105252  0.24649535  0.12986529     0.78100
C64         C  0.14206627  0.15321800  0.21725943     0.77100
C65         C  0.13806368  0.32810834  0.19091057     0.77400
C66         C  0.30394083  0.34428732  0.22594508     0.78600
C67         C  0.23623588  0.23199210  0.27901745     0.77600
N68         N  0.95918727  0.52564387  0.26196557    -0.03000
C69         C  0.41321601  0.51261227  0.25147865    -0.00400
C70         C  0.39668929  0.54373949  0.23181780    -0.23300
C71         C  0.93204185  0.07673148  0.23009343    -0.23500
C72         C  0.96844660  0.06616711  0.24871254    -0.00500
H73         H  0.36626043  0.53840163  0.21805803     0.13300
H74         H  0.93036681  0.10561381  0.21556960     0.13300
C75         C  0.05967391  0.15911346  0.23209644    -0.08700
C76         C  0.10013926  0.13100539  0.22991995     0.07500
C77         C  0.09944315  0.08475014  0.24120006    -0.02400
C78         C  0.05689028  0.06552559  0.25069469    -0.06900
C79         C  0.01493081  0.09190435  0.24936125     0.06600
C80         C  0.01792724  0.14060034  0.24236832    -0.01900
Br81       Br  0.46892587  0.17950153  0.25124004    -0.01600
H82         H  0.06038684  0.19598706  0.22563303     0.10500
H83         H  0.05578244  0.02833925  0.25648314     0.08600
Br84       Br  0.15329637  0.04395825  0.24080157    -0.02000
C85         C  0.35237581  0.45451399  0.26602481    -0.08700
C86         C  0.39390105  0.46337919  0.25206931     0.07500
C87         C  0.40795849  0.43002697  0.23213813    -0.02400
C88         C  0.37940220  0.39060955  0.22492958    -0.06900
C89         C  0.33591233  0.38314955  0.23730109     0.06600
C90         C  0.32369428  0.41457136  0.25926370    -0.01900
Br91       Br  0.26751316  0.40802374  0.28013133    -0.01600
H92         H  0.34071409  0.48036460  0.28109122     0.10500
H93         H  0.39053885  0.36688496  0.20861892     0.08600
Br94       Br  0.46363481  0.43983991  0.21194287    -0.02000
C95         C  0.10781879  0.45398664  0.17001155    -0.08700
C96         C  0.06065502  0.44912621  0.16025640     0.07500
C97         C  0.04127115  0.40257508  0.15733852    -0.02400
C98         C  0.06711700  0.36327730  0.16706420    -0.06900
C99         C  0.11186459  0.36955925  0.18004213     0.06600
C100        C  0.13302482  0.41517050  0.18022585    -0.01900
Br101      Br  0.19650969  0.42669970  0.19399817    -0.01600
H102        H  0.12406977  0.48911591  0.17174805     0.10500
H103        H  0.05138374  0.32790867  0.16553629     0.08600
Br104      Br  0.47434273  0.38691847  0.14765649    -0.02000
C105        C  0.44344760  0.13068728  0.15340931    -0.08700
C106        C  0.43946541  0.08077349  0.15283556     0.07500
C107        C  0.39609623  0.06002574  0.16017882    -0.02400
C108        C  0.35991894  0.08874088  0.17041232    -0.06900
C109        C  0.36611356  0.13836040  0.17391476     0.06600
C110        C  0.40823607  0.15933618  0.16429577    -0.01900
Br111      Br  0.42419097  0.22596705  0.16882212    -0.01600
H112        H  0.47690350  0.14719340  0.14865524     0.10500
H113        H  0.32760764  0.07184493  0.17678711     0.08600
Br114      Br  0.38023399  0.48839588  0.15668940    -0.02000
C115        C  0.21145969  0.25380180  0.05181447    -0.08700
C116        C  0.25496622  0.23717918  0.04273262     0.07500
C117        C  0.28901715  0.22192842  0.06260587    -0.02400
C118        C  0.28054945  0.22637605  0.09072610    -0.06900
C119        C  0.23750535  0.24340118  0.09981235     0.06600
C120        C  0.20239771  0.25658409  0.08018489    -0.01900
Br121      Br  0.14227361  0.27917396  0.09133344    -0.01600
H122        H  0.18442554  0.26398366  0.03678479     0.10500
H123        H  0.30718741  0.21476479  0.10566549     0.08600
Br124      Br  0.34549908  0.18952230  0.05287390    -0.02000
C125        C  0.34958918  0.35330262  0.48696166    -0.08700
C126        C  0.39720941  0.34747685  0.48068764     0.07500
C127        C  0.41852442  0.30308825  0.48622388    -0.02400
C128        C  0.39174078  0.26516252  0.49594298    -0.06900
C129        C  0.34309209  0.26937719  0.49960021     0.06600
C130        C  0.32230779  0.31459396  0.49600857    -0.01900
Br131      Br  0.25595281  0.32420341  0.49928808    -0.01600
H132        H  0.33299060  0.38747987  0.48363608     0.10500
H133        H  0.40821383  0.23062594  0.49811377     0.08600
Br134      Br  0.48231965  0.28924531  0.47704723    -0.02400
C135        C  0.15430800  0.08941415  0.50212321    -0.08700
C136        C  0.12498435  0.10936748  0.48148286     0.07500
C137        C  0.13478824  0.15555010  0.47219520    -0.02400
C138        C  0.17560676  0.17960136  0.48198545    -0.06900
C139        C  0.20737233  0.15782772  0.50065796     0.06600
C140        C  0.19557061  0.11320339  0.51156153    -0.01900
Br141      Br  0.23709648  0.08203471  0.53744851    -0.01600
H142        H  0.14647921  0.05413661  0.50977849     0.10500
H143        H  0.18480352  0.21353119  0.47309745     0.08600
Br144      Br  0.09515028  0.18533999  0.44477058    -0.02000
C145        C  0.99595243  0.46627851  0.32875207    -0.08700
C146        C  0.47657318  0.50520118  0.34966006     0.07500
C147        C  0.45614714  0.03515881  0.33770990    -0.02400
C148        C  0.45270149  0.04239658  0.30936846    -0.06900
C149        C  0.97239024  0.51771878  0.29058502     0.06600
C150        C  0.99012277  0.47386535  0.30026153    -0.01900
Br151      Br  0.01029642  0.42445027  0.27608929    -0.01600
H152        H  0.00926097  0.43241316  0.33600922     0.10500
H153        H  0.43289754  0.07251824  0.30160474     0.08600
Br154      Br  0.42633152  0.08017543  0.36129141    -0.02000
C155        C  0.04185223  0.00085202  0.07088166    -0.08700
C156        C  0.50024085  0.49806674  0.05738145     0.07500
C157        C  0.46820395  0.46959590  0.07160425    -0.02400
C158        C  0.46561606  0.47420393  0.10032375    -0.06900
C159        C  0.49602614  0.50548824  0.11526328     0.06600
C160        C  0.04290032  0.00899123  0.09938387    -0.01900
Br161      Br  0.10191350  0.03168322  0.11536567    -0.01600
H162        H  0.07423160  0.00451213  0.05978122     0.10500
H163        H  0.43973270  0.45340845  0.11085764     0.08600
Br164      Br  0.42774868  0.42384196  0.05260050    -0.02000
C165        C  0.21035803  0.22865564  0.32797318    -0.08700
C166        C  0.24664632  0.23457229  0.30914518     0.07500
C167        C  0.29244558  0.24611900  0.31935212    -0.02400
C168        C  0.30099065  0.25273270  0.34769567    -0.06900
C169        C  0.26483153  0.24736671  0.36664750     0.06600
C170        C  0.21935421  0.23420495  0.35658861    -0.01900
Br171      Br  0.16936729  0.22149751  0.38110264    -0.01600
H172        H  0.17503729  0.21941768  0.32040567     0.10500
H173        H  0.33601833  0.26357069  0.35499745     0.08600
Br174      Br  0.34391984  0.25749636  0.29538170    -0.02000
C175        C  0.41022667  0.15442572  0.41900084    -0.08700
C176        C  0.38324265  0.11366893  0.42474564     0.07500
C177        C  0.33452122  0.11364321  0.41768357    -0.02400
C178        C  0.31289757  0.15635329  0.40910859    -0.06900
C179        C  0.33970469  0.19851802  0.40637362     0.06600
C180        C  0.38922666  0.19581526  0.40904649    -0.01900
Br181      Br  0.43002540  0.24796248  0.39977969    -0.01600
H182        H  0.44820023  0.15412491  0.42229536     0.10500
H183        H  0.27482655  0.15747432  0.40672884     0.08600
Br184      Br  0.29552539  0.05803582  0.42183559    -0.02000
C185        C  0.16809495  0.39313861  0.40478136    -0.08700
C186        C  0.14182731  0.38010478  0.42791564     0.07500
C187        C  0.15313255  0.33646857  0.44099045    -0.02400
C188        C  0.19023018  0.30863228  0.43145256    -0.06900
C189        C  0.21732664  0.32294884  0.40922898     0.06600
C190        C  0.20573206  0.36545549  0.39576004    -0.01900
Br191      Br  0.24287303  0.38862922  0.36628246    -0.01600
H192        H  0.16062934  0.42606828  0.39411831     0.10500
H193        H  0.20026248  0.27699208  0.44270402     0.08600
Br194      Br  0.12036160  0.31590834  0.97159574    -0.02000
N195        N  0.27832841  0.26724781  0.89560906    -0.03000
C196        C  0.31915978  0.25723923  0.90994639    -0.00400
C197        C  0.33073010  0.29356018  0.92853176    -0.23300
C198        C  0.29640763  0.32699960  0.92584654    -0.23500
C199        C  0.26417360  0.31001930  0.90617648    -0.00500
H200        H  0.35924017  0.29410257  0.94383531     0.13300
H201        H  0.29246527  0.35830032  0.93877070     0.13300
Zn202      Zn  0.43966376  0.48107479  0.93290659     1.49700
Zn203      Zn  0.51926135  0.44261823  0.97608527     1.49400
Zn204      Zn  0.04779958  0.50773810  0.92728773     1.49100
Zn205      Zn  0.49193620  0.04570782  0.97605693     1.49500
O206        O  0.49908896  0.49312919  0.95251467    -1.83600
O207        O  0.40458739  0.42638634  0.95354078    -0.74300
O208        O  0.07712631  0.40572413  0.95758188    -0.74100
O209        O  0.01837884  0.51761289  0.88955409    -0.73600
O210        O  0.46361655  0.40090017  0.98073847    -0.74300
O211        O  0.45488860  0.47071969  0.89221750    -0.73900
O212        O  0.09179499  0.45253137  0.92237557    -0.74500
O213        O  0.04375455  0.08039146  0.98284010    -0.73900
O214        O  0.52951582  0.46370591  0.51601319    -0.74600
O215        O  0.08814359  0.06339458  0.94694419    -0.74000
O216        O  0.47684300  0.02113854  0.51258509    -0.74500
O217        O  0.44479805  0.08995138  0.95845311    -0.74400
O218        O  0.40239984  0.04084043  0.93093116    -0.74200
C219        C  0.42086665  0.39816432  0.97222964     0.77600
C220        C  0.10000445  0.41463733  0.93586808     0.78100
C221        C  0.48482123  0.49518116  0.87879721     0.77100
C222        C  0.08107563  0.08610523  0.96944549     0.77400
C223        C  0.49906149  0.48927204  0.52810421     0.78600
C224        C  0.41141552  0.08269875  0.94057057     0.77600
N225        N  0.26255192  0.23046934  0.01363647    -0.03000
C226        C  0.24484417  0.19264201  0.99870181    -0.00400
C227        C  0.27346441  0.18124385  0.97727123    -0.23300
C228        C  0.31021959  0.21298384  0.97873950    -0.23500
C229        C  0.30218682  0.24367898  0.00047605    -0.00500
H230        H  0.26679411  0.15410096  0.96155615     0.13300
H231        H  0.33927508  0.21469042  0.96502915     0.13300
N232        N  0.01145716  0.01505751  0.64241687    -0.03000
C233        C  0.49088128  0.05027737  0.65874722    -0.00400
C234        C  0.51800357  0.05653714  0.68252902    -0.23300
C235        C  0.04121739  0.51540725  0.68410968    -0.23500
C236        C  0.03286924  0.48616528  0.66150073    -0.00500
H237        H  0.51603626  0.08563979  0.69707213     0.13300
H238        H  0.06758673  0.51006406  0.70021237     0.13300
Zn239      Zn  0.25892471  0.19165876  0.72368350     1.49700
Zn240      Zn  0.29497482  0.26919015  0.68162601     1.49400
Zn241      Zn  0.19145469  0.23492420  0.67856381     1.49100
Zn242      Zn  0.22696365  0.29712623  0.72891716     1.49500
O243        O  0.24376458  0.24826988  0.70332264    -1.83600
O244        O  0.31212456  0.15605842  0.70333715    -0.74300
O245        O  0.27289077  0.27654268  0.64171382    -0.74100
O246        O  0.14991787  0.18596533  0.69653048    -0.73600
O247        O  0.33926842  0.21530879  0.67799878    -0.74300
O248        O  0.19834314  0.15270391  0.72772297    -0.73900
O249        O  0.21484633  0.22190602  0.64006952    -0.74500
O250        O  0.17274465  0.33628908  0.71186534    -0.73900
O251        O  0.32936411  0.32703940  0.69973907    -0.74600
O252        O  0.15324398  0.29333714  0.67412215    -0.74000
O253        O  0.28174574  0.34215764  0.73410585    -0.74500
O254        O  0.22016851  0.26886770  0.76728117    -0.74400
O255        O  0.27520940  0.21285690  0.76348214    -0.74200
C256        C  0.34124258  0.17232811  0.68590025     0.77600
C257        C  0.24548493  0.24757263  0.62811089     0.78100
C258        C  0.15724543  0.15766706  0.71666359     0.77100
C259        C  0.14958412  0.33073781  0.68888038     0.77400
C260        C  0.31917155  0.35107489  0.72134050     0.78600
C261        C  0.25048761  0.24070528  0.77827639     0.77600
N262        N  0.97023562  0.52184173  0.76040583    -0.03000
C263        C  0.43718663  0.51316296  0.74741779    -0.00400
C264        C  0.41956098  0.54916464  0.73135188    -0.23300
C265        C  0.94888254  0.08071980  0.73057437    -0.23500
C266        C  0.98500333  0.06951814  0.74928633    -0.00500
H267        H  0.38786569  0.54776642  0.71846200     0.13300
H268        H  0.94716766  0.11058066  0.71669381     0.13300
C269        C  0.07598720  0.16289178  0.73326541    -0.08700
C270        C  0.11580725  0.13462470  0.72919003     0.07500
C271        C  0.11512090  0.08705761  0.73838649    -0.02400
C272        C  0.07316231  0.06732440  0.74834233    -0.06900
C273        C  0.03176503  0.09445891  0.74948325     0.06600
C274        C  0.03479986  0.14370347  0.74388786    -0.01900
Br275      Br  0.48718833  0.18174277  0.75823232    -0.01600
H276        H  0.07683678  0.20038764  0.72806868     0.10500
H277        H  0.07186347  0.02956912  0.75267642     0.08600
Br278      Br  0.16822384  0.04592709  0.73453242    -0.02000
C279        C  0.36544371  0.46624274  0.75597183    -0.08700
C280        C  0.41260022  0.46645872  0.74836246     0.07500
C281        C  0.42991592  0.42652914  0.73417671    -0.02400
C282        C  0.39937278  0.38886377  0.72609473    -0.06900
C283        C  0.35121246  0.38999070  0.73208488     0.06600
C284        C  0.33474939  0.42878103  0.74810758    -0.01900
Br285      Br  0.26997110  0.43669387  0.75757320    -0.01600
H286        H  0.35150848  0.49728885  0.76635394     0.10500
H287        H  0.41314126  0.35921816  0.71438538     0.08600
Br288      Br  0.49375706  0.42388571  0.72296278    -0.02000
C289        C  0.11148957  0.45085647  0.66238218    -0.08700
C290        C  0.06274061  0.44378061  0.65749093     0.07500
C291        C  0.04394838  0.39724306  0.65954645    -0.02400
C292        C  0.07276384  0.36034441  0.66951570    -0.06900
C293        C  0.12001941  0.36942861  0.67779393     0.06600
C294        C  0.13986170  0.41455432  0.67287017    -0.01900
Br295      Br  0.20545247  0.42873778  0.68040532    -0.01600
H296        H  0.12669313  0.48630230  0.66071095     0.10500
H297        H  0.05771537  0.32501915  0.67196190     0.08600
Br298      Br  0.47652750  0.38657542  0.65013301    -0.02000
C299        C  0.45497936  0.12896433  0.65417706    -0.08700
C300        C  0.44826599  0.07937466  0.65411878     0.07500
C301        C  0.40385105  0.06097908  0.66109957    -0.02400
C302        C  0.36888816  0.09180450  0.67052928    -0.06900
C303        C  0.37755432  0.14111729  0.67356778     0.06600
C304        C  0.42061187  0.15981440  0.66389942    -0.01900
Br305      Br  0.43829458  0.22624773  0.66633900    -0.01600
H306        H  0.48930409  0.14351074  0.64945872     0.10500
H307        H  0.33562732  0.07678479  0.67679457     0.08600
Br308      Br  0.38621762  0.48847925  0.66540775    -0.02000
C309        C  0.22469822  0.24082750  0.55003212    -0.08700
C310        C  0.26896074  0.22525946  0.54155745     0.07500
C311        C  0.30457524  0.21652888  0.56195674    -0.02400
C312        C  0.29634744  0.22573285  0.58978265    -0.06900
C313        C  0.25230591  0.24132445  0.59820527     0.06600
C314        C  0.21610276  0.24862635  0.57814148    -0.01900
Br315      Br  0.15502536  0.27020650  0.58818718    -0.01600
H316        H  0.19668853  0.24643011  0.53472822     0.10500
H317        H  0.32395726  0.21859007  0.60514104     0.08600
Br318      Br  0.36318254  0.18659322  0.55381510    -0.02000
C319        C  0.34183820  0.36900718  0.98770831    -0.08700
C320        C  0.39045728  0.36137779  0.98512565     0.07500
C321        C  0.40959350  0.31848094  0.99576607    -0.02400
C322        C  0.37976402  0.28270238  0.00513765    -0.06900
C323        C  0.33075284  0.28798393  0.00444019     0.06600
C324        C  0.31202723  0.33276537  0.99733739    -0.01900
Br325      Br  0.24557505  0.34409244  0.99722003    -0.01600
H326        H  0.32662337  0.40243243  0.98110311     0.10500
H327        H  0.39474130  0.24842561  0.01031152     0.08600
Br328      Br  0.47533623  0.30256005  0.99539640    -0.02400
C329        C  0.14774713  0.10218841  0.00250614    -0.08700
C330        C  0.11783631  0.11833271  0.98100368     0.07500
C331        C  0.12518422  0.16376512  0.97003831    -0.02400
C332        C  0.16415337  0.19103366  0.97932384    -0.06900
C333        C  0.19652381  0.17331627  0.99908634     0.06600
C334        C  0.18738029  0.12915950  0.01133951    -0.01900
Br335      Br  0.23083937  0.10232533  0.03783627    -0.01600
H336        H  0.14189610  0.06728735  0.01122632     0.10500
H337        H  0.17168468  0.22419624  0.96922581     0.08600
Br338      Br  0.08487751  0.18823609  0.94106314    -0.02000
C339        C  0.01125165  0.47735073  0.83045227    -0.08700
C340        C  0.47963954  0.49903826  0.84861949     0.07500
C341        C  0.45359111  0.03824130  0.83732581    -0.02400
C342        C  0.45171690  0.04483385  0.80885233    -0.06900
C343        C  0.97444404  0.51312469  0.78970537     0.06600
C344        C  0.00920470  0.48347928  0.80175522    -0.01900
Br345      Br  0.05428123  0.44948660  0.78092300    -0.01600
H346        H  0.03869384  0.45545477  0.83963733     0.10500
H347        H  0.43103880  0.07381892  0.80041293     0.08600
Br348      Br  0.42064501  0.08230806  0.86017675    -0.02000
C349        C  0.04621672  0.00225880  0.56837861    -0.08700
C350        C  0.49858800  0.49055848  0.55840098     0.07500
C351        C  0.45946600  0.47459571  0.57306016    -0.02400
C352        C  0.46000518  0.47883079  0.60197495    -0.06900
C353        C  0.49897042  0.49934519  0.61644136     0.06600
C354        C  0.04942826  0.01100721  0.59678098    -0.01900
Br355      Br  0.10935614  0.03428823  0.61111349    -0.01600
H356        H  0.07766609  0.00562357  0.55639301     0.10500
H357        H  0.43004962  0.46617440  0.61310197     0.08600
Br358      Br  0.40535318  0.44591754  0.55442317    -0.02000
C359        C  0.22059494  0.23561540  0.82632117    -0.08700
C360        C  0.25851111  0.24221247  0.80868469     0.07500
C361        C  0.30350185  0.25299769  0.82040342    -0.02400
C362        C  0.30938716  0.25951489  0.84897928    -0.06900
C363        C  0.27134400  0.25435090  0.86670767     0.06600
C364        C  0.22697350  0.24057115  0.85516814    -0.01900
Br365      Br  0.17513568  0.22566786  0.87797729    -0.01600
H366        H  0.18600193  0.22627315  0.81763232     0.10500
H367        H  0.34376367  0.27031218  0.85737336     0.08600
Br368      Br  0.35746739  0.26319686  0.79818508    -0.02000
C369        C  0.41342157  0.16651650  0.92529663    -0.08700
C370        C  0.38640483  0.12500462  0.92919584     0.07500
C371        C  0.33803072  0.12535397  0.92122480    -0.02400
C372        C  0.31714863  0.16793852  0.91190806    -0.06900
C373        C  0.34377631  0.21044061  0.91033240     0.06600
C374        C  0.39295155  0.20847279  0.91563407    -0.01900
Br375      Br  0.43436979  0.26203342  0.91023494    -0.01600
H376        H  0.45107435  0.16644606  0.92987101     0.10500
H377        H  0.27933230  0.16870474  0.90805939     0.08600
Br378      Br  0.29793491  0.07055709  0.92537816    -0.02000
C379        C  0.16146542  0.39364503  0.90161576    -0.08700
C380        C  0.13719139  0.38146735  0.92566464     0.07500
C381        C  0.15043288  0.33897356  0.93931391    -0.02400
C382        C  0.18891876  0.31265848  0.93017745    -0.06900
C383        C  0.21498341  0.32708262  0.90753090     0.06600
C384        C  0.20005093  0.36716796  0.89274089    -0.01900
Br385      Br  0.23388981  0.38891646  0.86159241    -0.01600
H386        H  0.15184633  0.42520852  0.89016243     0.10500
H387        H  0.20116660  0.28267680  0.94216439     0.08600
Br388      Br  0.12245268  0.31339095  0.47307010    -0.02000
N389        N  0.27463202  0.75708292  0.39287916    -0.03000
C390        C  0.31643485  0.74655020  0.40597775    -0.00400
C391        C  0.32931810  0.78195403  0.42489247    -0.23300
C392        C  0.29500350  0.81552053  0.42362610    -0.23500
C393        C  0.26160693  0.79951104  0.40433436    -0.00500
H394        H  0.35892104  0.78173615  0.43945043     0.13300
H395        H  0.29226967  0.84634473  0.43710209     0.13300
Zn396      Zn  0.44375320  0.97131815  0.43142594     1.49700
Zn397      Zn  0.52367787  0.93811712  0.47576043     1.49400
Zn398      Zn  0.05264593  0.00414090  0.42770788     1.49100
Zn399      Zn  0.48842995  0.54106346  0.47760733     1.49500
O400        O  0.50123975  0.98726481  0.45190571    -1.83600
O401        O  0.41246829  0.91379448  0.45085371    -0.74300
O402        O  0.07938100  0.90171319  0.45699824    -0.74100
O403        O  0.02404509  0.01897674  0.39058712    -0.73600
O404        O  0.47103977  0.89124533  0.47949781    -0.74300
O405        O  0.46118078  0.96149181  0.39108589    -0.73900
O406        O  0.09462815  0.94777673  0.42159656    -0.74500
O407        O  0.04394308  0.57819993  0.48392355    -0.73900
O408        O  0.53585500  0.97091270  0.01474961    -0.74600
O409        O  0.08835787  0.56123519  0.44801424    -0.74000
O410        O  0.47452863  0.52469981  0.01351819    -0.74500
O411        O  0.44126555  0.58432119  0.45861622    -0.74400
O412        O  0.39973630  0.53351852  0.43154811    -0.74200
C413        C  0.42920743  0.88598344  0.46956981     0.77600
C414        C  0.10220145  0.90987215  0.43518873     0.78100
C415        C  0.48771613  0.99014729  0.37801866     0.77100
C416        C  0.08152962  0.58357065  0.47068260     0.77400
C417        C  0.50542118  0.99654365  0.02680345     0.78600
C418        C  0.40829782  0.57579559  0.44056990     0.77600
N419        N  0.27200308  0.71811774  0.51151392    -0.03000
C420        C  0.25098034  0.68086575  0.49761753    -0.00400
C421        C  0.27741918  0.66668109  0.47575659    -0.23300
C422        C  0.31611114  0.69608927  0.47593863    -0.23500
C423        C  0.31151745  0.72818811  0.49741288    -0.00500
H424        H  0.26777832  0.63970457  0.46044358     0.13300
H425        H  0.34365854  0.69608338  0.46120425     0.13300
N426        N  0.99611272  0.50845007  0.14457922    -0.03000
C427        C  0.47975768  0.54671044  0.15900333    -0.00400
C428        C  0.50603954  0.55439990  0.18293311    -0.23300
C429        C  0.03900213  0.02917189  0.18451486    -0.23500
C430        C  0.03464202  0.99811785  0.16235419    -0.00500
H431        H  0.50258367  0.58388079  0.19712711     0.13300
H432        H  0.06269268  0.02558810  0.20211512     0.13300
Zn433      Zn  0.24324302  0.68364441  0.22089364     1.49700
Zn434      Zn  0.28193431  0.76231547  0.18033460     1.49400
Zn435      Zn  0.17705805  0.73263242  0.17614535     1.49100
Zn436      Zn  0.21560800  0.78914978  0.22831829     1.49500
O437        O  0.22992111  0.74159371  0.20131015    -1.83600
O438        O  0.29637455  0.64750010  0.20071684    -0.74300
O439        O  0.26143650  0.77304572  0.14042213    -0.74100
O440        O  0.13338640  0.68398964  0.19398522    -0.73600
O441        O  0.32418414  0.70747189  0.17619355    -0.74300
O442        O  0.18117549  0.64712719  0.22415822    -0.73900
O443        O  0.20076135  0.72150865  0.13693120    -0.74500
O444        O  0.16433122  0.83238336  0.21228337    -0.73900
O445        O  0.31913986  0.81657136  0.20018069    -0.74600
O446        O  0.14261572  0.79442546  0.17318892    -0.74000
O447        O  0.27280484  0.83066065  0.23513570    -0.74500
O448        O  0.20622636  0.75918931  0.26593871    -0.74400
O449        O  0.26022231  0.70259856  0.26104278    -0.74200
C450        C  0.32607640  0.66439427  0.18381983     0.77600
C451        C  0.23311428  0.74643460  0.12584067     0.78100
C452        C  0.14002551  0.65432167  0.21363881     0.77100
C453        C  0.14153389  0.83087583  0.18903878     0.77400
C454        C  0.31079667  0.83863503  0.22276463     0.78600
C455        C  0.23649947  0.73046867  0.27637321     0.77600
N456        N  0.95912207  0.02428904  0.26163837    -0.03000
C457        C  0.42522054  0.00153654  0.24884995    -0.00400
C458        C  0.40694749  0.03391729  0.23050298    -0.23300
C459        C  0.93088336  0.57880785  0.23114109    -0.23500
C460        C  0.96789034  0.56804386  0.24932356    -0.00500
H461        H  0.37583357  0.02916557  0.21726142     0.13300
H462        H  0.92883567  0.60787632  0.21673505     0.13300
C463        C  0.05810882  0.66031973  0.22977956    -0.08700
C464        C  0.09815902  0.63200286  0.22647486     0.07500
C465        C  0.09794781  0.58564664  0.23771019    -0.02400
C466        C  0.05629617  0.56678073  0.24864526    -0.06900
C467        C  0.01459165  0.59351101  0.24884490     0.06600
C468        C  0.01733160  0.64214854  0.24153528    -0.01900
Br469      Br  0.46299911  0.68765068  0.24848955    -0.01600
H470        H  0.05857743  0.69721227  0.22334999     0.10500
H471        H  0.05545636  0.52962153  0.25449882     0.08600
Br472      Br  0.15127286  0.54432720  0.23562808    -0.02000
C473        C  0.36535728  0.94387311  0.26434735    -0.08700
C474        C  0.40611720  0.95238349  0.24968881     0.07500
C475        C  0.41900927  0.91909462  0.22943946    -0.02400
C476        C  0.38874121  0.88106862  0.22186045    -0.06900
C477        C  0.34527868  0.87482509  0.23458644     0.06600
C478        C  0.33539078  0.90508231  0.25749989    -0.01900
Br479      Br  0.28089417  0.89849556  0.27978596    -0.01600
H480        H  0.35516301  0.96935548  0.28001573     0.10500
H481        H  0.39848228  0.85761907  0.20508653     0.08600
Br482      Br  0.47569188  0.92720171  0.20977058    -0.02000
C483        C  0.11041643  0.95867484  0.17293072    -0.08700
C484        C  0.06420504  0.95428347  0.16151741     0.07500
C485        C  0.04559530  0.90790735  0.15643655    -0.02400
C486        C  0.07144192  0.86792346  0.16519389    -0.06900
C487        C  0.11543828  0.87326185  0.17927976     0.06600
C488        C  0.13566633  0.91918377  0.18201862    -0.01900
Br489      Br  0.19815776  0.93058752  0.19746574    -0.01600
H490        H  0.12625213  0.99372294  0.17624913     0.10500
H491        H  0.05628747  0.83257899  0.16192295     0.08600
Br492      Br  0.48476120  0.89690598  0.13887796    -0.02000
C493        C  0.44308772  0.62495840  0.15505440    -0.08700
C494        C  0.43703146  0.57528976  0.15339906     0.07500
C495        C  0.39206468  0.55578738  0.15826170    -0.02400
C496        C  0.35578886  0.58531659  0.16734341    -0.06900
C497        C  0.36365681  0.63436929  0.17204540     0.06600
C498        C  0.40759062  0.65438504  0.16472262    -0.01900
Br499      Br  0.42510494  0.72019390  0.17136827    -0.01600
H500        H  0.47776000  0.64034255  0.15211961     0.10500
H501        H  0.32202777  0.56945706  0.17198698     0.08600
Br502      Br  0.38681581  0.99217640  0.16043976    -0.02000
C503        C  0.21781595  0.75081560  0.04715320    -0.08700
C504        C  0.26157455  0.73327220  0.03899693     0.07500
C505        C  0.29470667  0.71915431  0.05970735    -0.02400
C506        C  0.28458565  0.72445282  0.08763496    -0.06900
C507        C  0.24112351  0.74213517  0.09581058     0.06600
C508        C  0.20747527  0.75538339  0.07531893    -0.01900
Br509      Br  0.14802997  0.78161896  0.08494657    -0.01600
H510        H  0.19169792  0.76086366  0.03154966     0.10500
H511        H  0.31041998  0.71328546  0.10316495     0.08600
Br512      Br  0.35233036  0.68748113  0.05138475    -0.02000
C513        C  0.35174541  0.85445402  0.48529878    -0.08700
C514        C  0.39982625  0.84698729  0.48083648     0.07500
C515        C  0.41936164  0.80241621  0.48804877    -0.02400
C516        C  0.39034066  0.76572348  0.49724643    -0.06900
C517        C  0.34158320  0.77182612  0.49944780     0.06600
C518        C  0.32263426  0.81740623  0.49451615    -0.01900
Br519      Br  0.25644601  0.82944571  0.49637872    -0.01600
H520        H  0.33634492  0.88875917  0.48066035     0.10500
H521        H  0.40534501  0.73071418  0.50036609     0.08600
Br522      Br  0.48403796  0.78653848  0.48252317    -0.02400
C523        C  0.14979405  0.59590188  0.50318439    -0.08700
C524        C  0.11924252  0.61439292  0.48267681     0.07500
C525        C  0.12766194  0.66027368  0.47253318    -0.02400
C526        C  0.16855060  0.68515556  0.48119193    -0.06900
C527        C  0.20169121  0.66469934  0.49947866     0.06600
C528        C  0.19113018  0.62064413  0.51147021    -0.01900
Br529      Br  0.23463146  0.59124835  0.53696902    -0.01600
H530        H  0.14305433  0.56076172  0.51144178     0.10500
H531        H  0.17682089  0.71900923  0.47153541     0.08600
Br532      Br  0.08613817  0.68826906  0.44536072    -0.02000
C533        C  0.99217382  0.96425917  0.32870576    -0.08700
C534        C  0.48061553  0.99561753  0.34810288     0.07500
C535        C  0.45807355  0.54839337  0.33983409    -0.02400
C536        C  0.45262142  0.55578803  0.31146721    -0.06900
C537        C  0.97272077  0.01633310  0.29018491     0.06600
C538        C  0.98660270  0.97131161  0.30019822    -0.01900
Br539      Br  0.00260874  0.91941067  0.27653621    -0.01600
H540        H  0.00228995  0.92948075  0.33626255     0.10500
H541        H  0.43680555  0.58857380  0.30426987     0.08600
Br542      Br  0.43832779  0.59792915  0.36423359    -0.02000
C543        C  0.03767531  0.51299797  0.07180709    -0.08700
C544        C  0.50482080  0.99871822  0.05703191     0.07500
C545        C  0.46545371  0.98250081  0.07127517    -0.02400
C546        C  0.46389090  0.98926191  0.09989850    -0.06900
C547        C  0.50169902  0.01104269  0.11474827     0.06600
C548        C  0.03661411  0.51909627  0.10044550    -0.01900
Br549      Br  0.08845015  0.55327230  0.11821601    -0.01600
H550        H  0.06779361  0.52619099  0.06087903     0.10500
H551        H  0.43361525  0.97635794  0.11057315     0.08600
Br552      Br  0.41415196  0.94907082  0.05251869    -0.02000
C553        C  0.21283387  0.72007191  0.32559109    -0.08700
C554        C  0.24711332  0.73270473  0.30652320     0.07500
C555        C  0.29104762  0.75059524  0.31652105    -0.02400
C556        C  0.29962794  0.75702517  0.34490322    -0.06900
C557        C  0.26530989  0.74536448  0.36405858     0.06600
C558        C  0.22198426  0.72568333  0.35424968    -0.01900
Br559      Br  0.17553142  0.70491601  0.37938271    -0.01600
H560        H  0.17902602  0.70583699  0.31819523     0.10500
H561        H  0.33296343  0.77259844  0.35212987     0.08600
Br562      Br  0.33943330  0.77007493  0.29209892    -0.02000
C563        C  0.41027782  0.65781197  0.42253344    -0.08700
C564        C  0.38329453  0.61686455  0.42788526     0.07500
C565        C  0.33521346  0.61582055  0.41916094    -0.02400
C566        C  0.31408557  0.65739701  0.40857355    -0.06900
C567        C  0.34062284  0.69967151  0.40574758     0.06600
C568        C  0.38984815  0.69806074  0.41066824    -0.01900
Br569      Br  0.43087675  0.75035645  0.40197052    -0.01600
H570        H  0.44790093  0.65831489  0.42722045     0.10500
H571        H  0.27624448  0.65777332  0.40482404     0.08600
Br572      Br  0.29577416  0.56066753  0.42395529    -0.02000
C573        C  0.16188488  0.88640555  0.40043472    -0.08700
C574        C  0.13828312  0.87559435  0.42492191     0.07500
C575        C  0.15103824  0.83323075  0.43888694    -0.02400
C576        C  0.18756513  0.80498364  0.42906461    -0.06900
C577        C  0.21304459  0.81791050  0.40593861     0.06600
C578        C  0.19921486  0.85849297  0.39123829    -0.01900
Br579      Br  0.23346198  0.87932790  0.36003097    -0.01600
H580        H  0.15290606  0.91813423  0.38891798     0.10500
H581        H  0.19943573  0.77465728  0.44119540     0.08600
Br582      Br  0.13018325  0.81954886  0.97448280    -0.02000
N583        N  0.28320400  0.77077369  0.89288679    -0.03000
C584        C  0.32542065  0.76001370  0.90545977    -0.00400
C585        C  0.33769285  0.79419571  0.92526512    -0.23300
C586        C  0.30241375  0.82686816  0.92517274    -0.23500
C587        C  0.26911558  0.81173474  0.90559667    -0.00500
H588        H  0.36708261  0.79320107  0.93993331     0.13300
H589        H  0.29889881  0.85618819  0.93963446     0.13300
Zn590      Zn  0.44266553  0.98014889  0.93275479     1.49700
Zn591      Zn  0.52410563  0.94416037  0.97572610     1.49400
Zn592      Zn  0.05180087  0.00799724  0.92845715     1.49100
Zn593      Zn  0.48987225  0.54696409  0.97573759     1.49500
O594        O  0.50183468  0.99343637  0.95204641    -1.83600
O595        O  0.41079545  0.92334625  0.95272510    -0.74300
O596        O  0.08071064  0.90537363  0.95793424    -0.74100
O597        O  0.02377560  0.02068623  0.89089724    -0.73600
O598        O  0.47036075  0.89958225  0.98029572    -0.74300
O599        O  0.45778623  0.97048012  0.89206033    -0.73900
O600        O  0.09629911  0.95312204  0.92329868    -0.74500
O601        O  0.04786124  0.57955296  0.98231520    -0.73900
O602        O  0.53277999  0.96553214  0.51481456    -0.74600
O603        O  0.08608200  0.56410027  0.94382779    -0.74000
O604        O  0.47057390  0.51576634  0.51450198    -0.74500
O605        O  0.44465385  0.59218718  0.95687132    -0.74400
O606        O  0.40200884  0.54291203  0.92966816    -0.74200
C607        C  0.42798469  0.89526290  0.97118712     0.77600
C608        C  0.10424422  0.91489730  0.93655483     0.78100
C609        C  0.48630501  0.99637419  0.87853344     0.77100
C610        C  0.08279892  0.58597683  0.96701624     0.77400
C611        C  0.50462577  0.99433812  0.52646748     0.78600
C612        C  0.41208416  0.58501279  0.93846738     0.77600
N613        N  0.27068506  0.72554469  0.01006629    -0.03000
C614        C  0.25084229  0.68999290  0.99397433    -0.00400
C615        C  0.27920235  0.67889891  0.97234780    -0.23300
C616        C  0.31752101  0.70848857  0.97466948    -0.23500
C617        C  0.31112821  0.73773480  0.99728344    -0.00500
H618        H  0.27095971  0.65395459  0.95568401     0.13300
H619        H  0.34600585  0.71053876  0.96054799     0.13300
N620        N  0.99870021  0.50445257  0.64434556    -0.03000
C621        C  0.48497697  0.54550433  0.65888572    -0.00400
C622        C  0.51216056  0.55470256  0.68240718    -0.23300
C623        C  0.05290543  0.02826759  0.68227361    -0.23500
C624        C  0.04620738  0.99832050  0.65972455    -0.00500
H625        H  0.51064888  0.58571841  0.69565747     0.13300
H626        H  0.07792057  0.02361335  0.69920656     0.13300
Zn627      Zn  0.25378481  0.68928189  0.72221998     1.49700
Zn628      Zn  0.28894684  0.76600621  0.67955209     1.49400
Zn629      Zn  0.18506212  0.73251151  0.67699525     1.49100
Zn630      Zn  0.22188131  0.79347609  0.72692552     1.49500
O631        O  0.23813675  0.74484642  0.70136693    -1.83600
O632        O  0.30661311  0.65335146  0.70147446    -0.74300
O633        O  0.26500231  0.77525103  0.64032960    -0.74100
O634        O  0.14315885  0.68430085  0.69608939    -0.73600
O635        O  0.33272378  0.71150321  0.67494813    -0.74300
O636        O  0.19290025  0.65072647  0.72661473    -0.73900
O637        O  0.20850320  0.71889439  0.63846221    -0.74500
O638        O  0.17032261  0.83429011  0.70978095    -0.73900
O639        O  0.32375417  0.82379704  0.69766293    -0.74600
O640        O  0.14947030  0.79291217  0.67172947    -0.74000
O641        O  0.27664172  0.83750031  0.73234460    -0.74500
O642        O  0.21407591  0.76673685  0.76524235    -0.74400
O643        O  0.27103951  0.71275793  0.76180111    -0.74200
C644        C  0.33491698  0.66875155  0.68330460     0.77600
C645        C  0.23832036  0.74581044  0.62662304     0.78100
C646        C  0.15135946  0.65581311  0.71610178     0.77100
C647        C  0.14819081  0.83067246  0.68642842     0.77400
C648        C  0.31371106  0.84718907  0.71952917     0.78600
C649        C  0.24606558  0.74078168  0.77637974     0.77600
N650        N  0.97599629  0.02672908  0.76126597    -0.03000
C651        C  0.42899628  0.01026292  0.74859556    -0.00400
C652        C  0.41328812  0.04562841  0.73142290    -0.23300
C653        C  0.94574350  0.57970921  0.73125309    -0.23500
C654        C  0.98065362  0.56588422  0.75010939    -0.00500
H655        H  0.38159535  0.04464802  0.71848018     0.13300
H656        H  0.94529622  0.61134364  0.71869367     0.13300
C657        C  0.07228011  0.66011524  0.73637017    -0.08700
C658        C  0.11073317  0.63197005  0.72909515     0.07500
C659        C  0.10968096  0.58306112  0.73544544    -0.02400
C660        C  0.06853204  0.56251216  0.74592988    -0.06900
C661        C  0.02818619  0.58982333  0.75060064     0.06600
C662        C  0.03192534  0.63979402  0.74757051    -0.01900
Br663      Br  0.48915248  0.68894955  0.75982165    -0.01600
H664        H  0.07350269  0.69830663  0.73317203     0.10500
H665        H  0.06654926  0.52433247  0.74742622     0.08600
Br666      Br  0.16101088  0.54185538  0.72697215    -0.02000
C667        C  0.35961874  0.95981314  0.75742317    -0.08700
C668        C  0.40560165  0.96297388  0.74804602     0.07500
C669        C  0.42214631  0.92641474  0.73084994    -0.02400
C670        C  0.39229424  0.88851403  0.72234753    -0.06900
C671        C  0.34527596  0.88631396  0.73057040     0.06600
C672        C  0.32942837  0.92218587  0.74902851    -0.01900
Br673      Br  0.26600072  0.92600144  0.76176136    -0.01600
H674        H  0.34603477  0.98869571  0.76984563     0.10500
H675        H  0.40555604  0.86153833  0.70848414     0.08600
Br676      Br  0.48335456  0.92998674  0.71568718    -0.02000
C677        C  0.12180063  0.95712996  0.66613017    -0.08700
C678        C  0.07413833  0.95393217  0.65729501     0.07500
C679        C  0.05310022  0.90819960  0.65402337    -0.02400
C680        C  0.07795466  0.86782276  0.66301156    -0.06900
C681        C  0.12349794  0.87246068  0.67512401     0.06600
C682        C  0.14642645  0.91716549  0.67494009    -0.01900
Br683      Br  0.21162727  0.92589781  0.68610791    -0.01600
H684        H  0.13921074  0.99168621  0.66797736     0.10500
H685        H  0.06088751  0.83306700  0.66170667     0.08600
Br686      Br  0.48496537  0.88931101  0.64770287    -0.02000
C687        C  0.44761737  0.62293264  0.65109354    -0.08700
C688        C  0.44174417  0.57344671  0.65328517     0.07500
C689        C  0.39765091  0.55557255  0.66130745    -0.02400
C690        C  0.36263401  0.58710944  0.66991256    -0.06900
C691        C  0.37071511  0.63670640  0.67094613     0.06600
C692        C  0.41302572  0.65455478  0.65979889    -0.01900
Br693      Br  0.42951384  0.72124193  0.65866443    -0.01600
H694        H  0.48152896  0.63720549  0.64535070     0.10500
H695        H  0.32993034  0.57251670  0.67729399     0.08600
Br696      Br  0.39183928  0.99355512  0.66223070    -0.02000
C697        C  0.22087434  0.74652692  0.54839554    -0.08700
C698        C  0.26458593  0.72898956  0.54020818     0.07500
C699        C  0.29861130  0.71654369  0.56078667    -0.02400
C700        C  0.28922256  0.72327016  0.58864798    -0.06900
C701        C  0.24565711  0.74051936  0.59679308     0.06600
C702        C  0.21120319  0.75229018  0.57650142    -0.01900
Br703      Br  0.15131445  0.77733281  0.58629132    -0.01600
H704        H  0.19411201  0.75517247  0.53285624     0.10500
H705        H  0.31562273  0.71339033  0.60417738     0.08600
Br706      Br  0.35649597  0.68526072  0.55261883    -0.02000
C707        C  0.35118361  0.86442093  0.98836992    -0.08700
C708        C  0.39889050  0.85667114  0.98303204     0.07500
C709        C  0.41857272  0.81198647  0.98987665    -0.02400
C710        C  0.38975996  0.77532249  0.99929294    -0.06900
C711        C  0.34095454  0.78125932  0.00153218     0.06600
C712        C  0.32218458  0.82718493  0.99747518    -0.01900
Br713      Br  0.25636769  0.83973524  0.00051636    -0.01600
H714        H  0.33587253  0.89897270  0.98427852     0.10500
H715        H  0.40473416  0.74017513  0.00190289     0.08600
Br716      Br  0.48280355  0.79560301  0.98293013    -0.02400
C717        C  0.14595575  0.60863440  0.00165986    -0.08700
C718        C  0.12086584  0.61859510  0.97691333     0.07500
C719        C  0.13382856  0.65838792  0.96153747    -0.02400
C720        C  0.17349700  0.68541875  0.96986165    -0.06900
C721        C  0.20130017  0.67315829  0.99325318     0.06600
C722        C  0.18645275  0.63518180  0.00968691    -0.01900
Br723      Br  0.22315821  0.61474386  0.04118596    -0.01600
H724        H  0.13579831  0.57824015  0.01381921     0.10500
H725        H  0.18498889  0.71368528  0.95662462     0.08600
Br726      Br  0.09903827  0.67618351  0.92869193    -0.02000
C727        C  0.00931207  0.97057934  0.82926672    -0.08700
C728        C  0.47978290  0.00050744  0.84852020     0.07500
C729        C  0.44456482  0.52771256  0.83649915    -0.02400
C730        C  0.44507270  0.53697555  0.80825527    -0.06900
C731        C  0.98450720  0.01946889  0.79035563     0.06600
C732        C  0.00781894  0.97900065  0.80075322    -0.01900
Br733      Br  0.03966140  0.93549928  0.77732612    -0.01600
H734        H  0.02772748  0.93970536  0.83720135     0.10500
H735        H  0.41825394  0.55975699  0.79921404     0.08600
Br736      Br  0.39669716  0.55694110  0.85785429    -0.02000
C737        C  0.03427087  0.51468593  0.57080566    -0.08700
C738        C  0.50452984  0.99771177  0.55666983     0.07500
C739        C  0.47241699  0.97105181  0.57190584    -0.02400
C740        C  0.47141421  0.97720174  0.60062079    -0.06900
C741        C  0.50329296  0.00845310  0.61447276     0.06600
C742        C  0.03414280  0.52041832  0.59945576    -0.01900
Br743      Br  0.08296629  0.55948560  0.61663467    -0.01600
H744        H  0.06173326  0.53186138  0.55932689     0.10500
H745        H  0.44589663  0.95741532  0.61207624     0.08600
Br746      Br  0.43009785  0.92543418  0.55423164    -0.02000
C747        C  0.22377614  0.72989647  0.82563532    -0.08700
C748        C  0.25633267  0.74601788  0.80644441     0.07500
C749        C  0.29752028  0.77005592  0.81621060    -0.02400
C750        C  0.30588499  0.77707709  0.84460432    -0.06900
C751        C  0.27362382  0.76082830  0.86389312     0.06600
C752        C  0.23234850  0.73699470  0.85420945    -0.01900
Br753      Br  0.18766059  0.71318425  0.87940749    -0.01600
H754        H  0.19169880  0.71179996  0.81839048     0.10500
H755        H  0.33735394  0.79632439  0.85176953     0.08600
Br756      Br  0.34190639  0.79681766  0.79147524    -0.02000
C757        C  0.41729898  0.66775264  0.92112540    -0.08700
C758        C  0.38906660  0.62721483  0.92554481     0.07500
C759        C  0.34123511  0.62805780  0.91641528    -0.02400
C760        C  0.32155670  0.67073504  0.90640347    -0.06900
C761        C  0.34902649  0.71266746  0.90485999     0.06600
C762        C  0.39808285  0.70959236  0.91032963    -0.01900
Br763      Br  0.44052348  0.76188888  0.90389026    -0.01600
H764        H  0.45476113  0.66704329  0.92624140     0.10500
H765        H  0.28389279  0.67210506  0.90219148     0.08600
Br766      Br  0.30002496  0.57386717  0.91981260    -0.02000
C767        C  0.16420703  0.89302876  0.90155845    -0.08700
C768        C  0.14175511  0.88201177  0.92641651     0.07500
C769        C  0.15721454  0.84109061  0.94090214    -0.02400
C770        C  0.19592197  0.81530248  0.93163061    -0.06900
C771        C  0.21990393  0.82840641  0.90792692     0.06600
C772        C  0.20290385  0.86690908  0.89246216    -0.01900
Br773      Br  0.23422015  0.88748904  0.86014711    -0.01600
H774        H  0.15294722  0.92340778  0.88952955     0.10500
H775        H  0.21004070  0.78703509  0.94432950     0.08600
Br776      Br  0.12398831  0.81349077  0.47281963    -0.02000
N777        N  0.76514706  0.25223711  0.39428829    -0.03000
C778        C  0.80720120  0.24166897  0.40724432    -0.00400
C779        C  0.82086436  0.27761758  0.42567196    -0.23300
C780        C  0.78637765  0.31098072  0.42470185    -0.23500
C781        C  0.75229403  0.29457079  0.40601565    -0.00500
H782        H  0.85168178  0.27858841  0.43936446     0.13300
H783        H  0.78456182  0.34267741  0.43752000     0.13300
Zn784      Zn  0.94598139  0.47159737  0.42934927     1.49700
Zn785      Zn  0.02279147  0.43766650  0.47487789     1.49400
Zn786      Zn  0.54813466  0.50581745  0.42925282     1.49100
Zn787      Zn  0.98841245  0.03942750  0.47384531     1.49500
O788        O  0.00153842  0.48782256  0.45161036    -1.83600
O789        O  0.91238976  0.41486844  0.44782011    -0.74300
O790        O  0.57472456  0.40338221  0.45911996    -0.74100
O791        O  0.51728250  0.52094494  0.39222683    -0.73600
O792        O  0.96926567  0.39248947  0.47758629    -0.74300
O793        O  0.96659168  0.46359341  0.38950600    -0.73900
O794        O  0.58914110  0.44811312  0.42293951    -0.74500
O795        O  0.54897661  0.08040693  0.47912623    -0.73900
O796        O  0.03015958  0.46482984  0.01453070    -0.74600
O797        O  0.59203829  0.05434085  0.44456080    -0.74000
O798        O  0.96995217  0.01412868  0.01193465    -0.74500
O799        O  0.93978347  0.08116948  0.45448109    -0.74400
O800        O  0.90246998  0.02966650  0.42588255    -0.74200
C801        C  0.92777464  0.38771193  0.46718198     0.77600
C802        C  0.59662146  0.41042991  0.43685466     0.78100
C803        C  0.99272817  0.49428172  0.37767586     0.77100
C804        C  0.58693781  0.08044373  0.46600854     0.77400
C805        C  0.00022676  0.49096157  0.02669565     0.78600
C806        C  0.90820183  0.07191782  0.43570130     0.77600
N807        N  0.76903092  0.22239207  0.50970976    -0.03000
C808        C  0.75321830  0.18265989  0.49575151    -0.00400
C809        C  0.78271638  0.17039651  0.47494222    -0.23300
C810        C  0.81850057  0.20290486  0.47586369    -0.23500
C811        C  0.80899058  0.23510471  0.49667001    -0.00500
H812        H  0.77797709  0.14092471  0.46055414     0.13300
H813        H  0.84829608  0.20346094  0.46259191     0.13300
N814        N  0.50095278  0.01554318  0.14438251    -0.03000
C815        C  0.98273504  0.05346092  0.15604991    -0.00400
C816        C  0.00725903  0.06440473  0.18022430    -0.23300
C817        C  0.53736201  0.51832793  0.18501744    -0.23500
C818        C  0.53038379  0.49010283  0.16171417    -0.00500
H819        H  0.00149812  0.09456957  0.19356145     0.13300
H820        H  0.56264117  0.51267528  0.20176056     0.13300
Zn821      Zn  0.74537960  0.18573611  0.22170841     1.49700
Zn822      Zn  0.78048181  0.26555210  0.18123139     1.49400
Zn823      Zn  0.67731499  0.23063892  0.17738315     1.49100
Zn824      Zn  0.71273070  0.29014849  0.22871249     1.49500
O825        O  0.72968519  0.24280503  0.20227789    -1.83600
O826        O  0.79928061  0.15128586  0.20049214    -0.74300
O827        O  0.75711893  0.27603867  0.14188779    -0.74100
O828        O  0.63472107  0.18231964  0.19615882    -0.73600
O829        O  0.82520958  0.21199471  0.17592794    -0.74300
O830        O  0.68451356  0.14725298  0.22589648    -0.73900
O831        O  0.70198779  0.21853003  0.13862152    -0.74500
O832        O  0.66084927  0.33139153  0.21178251    -0.73900
O833        O  0.81433758  0.32250199  0.20094412    -0.74600
O834        O  0.64145728  0.29079147  0.17316304    -0.74000
O835        O  0.76756603  0.33443534  0.23599197    -0.74500
O836        O  0.70308439  0.25941179  0.26593396    -0.74400
O837        O  0.76079950  0.20632817  0.26175594    -0.74200
C838        C  0.82792753  0.16859462  0.18302910     0.77600
C839        C  0.73204150  0.24613700  0.12741050     0.78100
C840        C  0.64276333  0.15337540  0.21598511     0.77100
C841        C  0.63891536  0.32787311  0.18834615     0.77400
C842        C  0.80480375  0.34457108  0.22338078     0.78600
C843        C  0.73449029  0.23232825  0.27674280     0.77600
N844        N  0.45473287  0.52865367  0.26338503    -0.03000
C845        C  0.91688024  0.51019152  0.25081575    -0.00400
C846        C  0.89878472  0.54245028  0.23229156    -0.23300
C847        C  0.43709047  0.07216127  0.23128041    -0.23500
C848        C  0.47318792  0.06197897  0.25022751    -0.00500
H849        H  0.86700496  0.53804855  0.21956395     0.13300
H850        H  0.43437328  0.10249970  0.21782188     0.13300
C851        C  0.56134116  0.15761655  0.23339681    -0.08700
C852        C  0.60191612  0.13026906  0.22946794     0.07500
C853        C  0.60289097  0.08359312  0.24021347    -0.02400
C854        C  0.56161885  0.06316823  0.25071511    -0.06900
C855        C  0.51922198  0.08874611  0.25106239     0.06600
C856        C  0.52094837  0.13785118  0.24485075    -0.01900
Br857      Br  0.96627455  0.18382250  0.24610840    -0.01600
H858        H  0.56094276  0.19476041  0.22745721     0.10500
H859        H  0.56163368  0.02572558  0.25590092     0.08600
Br860      Br  0.65729808  0.04386868  0.23781183    -0.02000
C861        C  0.85498021  0.45303326  0.26439150    -0.08700
C862        C  0.89719563  0.46109421  0.25097982     0.07500
C863        C  0.91072330  0.42800746  0.23070529    -0.02400
C864        C  0.88123914  0.38951140  0.22294427    -0.06900
C865        C  0.83725921  0.38289362  0.23491549     0.06600
C866        C  0.82518918  0.41434460  0.25687588    -0.01900
Br867      Br  0.76744329  0.41011990  0.27647235    -0.01600
H868        H  0.84350197  0.47893653  0.27948463     0.10500
H869        H  0.89208150  0.36586815  0.20652030     0.08600
Br870      Br  0.96674379  0.43702148  0.21059528    -0.02000
C871        C  0.60746429  0.45188302  0.16499840    -0.08700
C872        C  0.55915005  0.44672523  0.15795691     0.07500
C873        C  0.53898359  0.40030766  0.15765282    -0.02400
C874        C  0.56583640  0.36167754  0.16703187    -0.06900
C875        C  0.61213106  0.36857737  0.17744024     0.06600
C876        C  0.63358074  0.41376510  0.17530065    -0.01900
Br877      Br  0.69818766  0.42576533  0.18665803    -0.01600
H878        H  0.62382105  0.48703090  0.16515381     0.10500
H879        H  0.54971118  0.32648463  0.16753823     0.08600
Br880      Br  0.97875478  0.39015840  0.14267835    -0.02000
C881        C  0.94059011  0.12814856  0.14786029    -0.08700
C882        C  0.93750159  0.07835966  0.15004744     0.07500
C883        C  0.89473280  0.05859327  0.15912599    -0.02400
C884        C  0.85899525  0.08836002  0.16882833    -0.06900
C885        C  0.86467172  0.13825632  0.16989692     0.06600
C886        C  0.90532718  0.15806166  0.15771423    -0.01900
Br887      Br  0.91894060  0.22539691  0.15637128    -0.01600
H888        H  0.97332891  0.14415573  0.14141489     0.10500
H889        H  0.82742188  0.07215863  0.17671936     0.08600
Br890      Br  0.88093403  0.48752060  0.16271665    -0.02000
C891        C  0.71990950  0.23228609  0.04871803    -0.08700
C892        C  0.76756884  0.22799499  0.04163690     0.07500
C893        C  0.80243398  0.23066579  0.06332047    -0.02400
C894        C  0.78946066  0.23899243  0.09052072    -0.06900
C895        C  0.74206996  0.24131362  0.09760580     0.06600
C896        C  0.70694836  0.23739117  0.07641191    -0.01900
Br897      Br  0.64111384  0.23843131  0.08415589    -0.01600
H898        H  0.69244589  0.22989637  0.03271793     0.10500
H899        H  0.81682094  0.24054126  0.10668662     0.08600
Br900      Br  0.86780478  0.21619414  0.05899601    -0.02000
C901        C  0.84912476  0.35930561  0.48284317    -0.08700
C902        C  0.89723265  0.35053514  0.47911068     0.07500
C903        C  0.91630682  0.30721334  0.48881738    -0.02400
C904        C  0.88691903  0.27276191  0.49993052    -0.06900
C905        C  0.83799594  0.27902227  0.50046447     0.06600
C906        C  0.81946611  0.32395970  0.49346884    -0.01900
Br907      Br  0.75336915  0.33692674  0.49484073    -0.01600
H908        H  0.83423082  0.39311660  0.47665437     0.10500
H909        H  0.90162390  0.23827351  0.50496894     0.08600
Br910      Br  0.98076233  0.28919851  0.48393906    -0.02400
C911        C  0.66674481  0.08333846  0.48715919    -0.08700
C912        C  0.62718172  0.10822216  0.47748230     0.07500
C913        C  0.62615445  0.15818328  0.48034814    -0.02400
C914        C  0.66649107  0.18295326  0.49042958    -0.06900
C915        C  0.70752061  0.15809012  0.49806059     0.06600
C916        C  0.70646035  0.10779612  0.49777209    -0.01900
Br917      Br  0.76017872  0.07107895  0.50941486    -0.01600
H918        H  0.66703097  0.04468951  0.48602079     0.10500
H919        H  0.66724755  0.22155260  0.48988840     0.08600
Br920      Br  0.57226039  0.19352866  0.46789091    -0.02000
C921        C  0.49046563  0.47043451  0.33061812    -0.08700
C922        C  0.98598681  0.50244243  0.34785786     0.07500
C923        C  0.97542017  0.04761437  0.33745168    -0.02400
C924        C  0.96797167  0.05418113  0.30919335    -0.06900
C925        C  0.46612274  0.52104663  0.29223547     0.06600
C926        C  0.48585324  0.47824114  0.30208299    -0.01900
Br927      Br  0.50978745  0.43066861  0.27793519    -0.01600
H928        H  0.50589064  0.43755834  0.33797870     0.10500
H929        H  0.95721462  0.08897928  0.30201759     0.08600
Br930      Br  0.96770137  0.10162989  0.36159567    -0.02000
C931        C  0.54219088  0.02147322  0.07163200    -0.08700
C932        C  0.99942777  0.49219074  0.05703294     0.07500
C933        C  0.95968750  0.47676724  0.07129913    -0.02400
C934        C  0.95871720  0.48241468  0.10008615    -0.06900
C935        C  0.99719645  0.50289812  0.11498734     0.06600
C936        C  0.54071553  0.02818829  0.10022194    -0.01900
Br937      Br  0.59146946  0.06382661  0.11808655    -0.01600
H938        H  0.57192668  0.03537954  0.06063787     0.10500
H939        H  0.92811382  0.47036605  0.11083777     0.08600
Br940      Br  0.90681685  0.44645653  0.05230723    -0.02000
C941        C  0.70587763  0.22320255  0.32497564    -0.08700
C942        C  0.74263363  0.23371766  0.30708239     0.07500
C943        C  0.78673547  0.24842732  0.31845228    -0.02400
C944        C  0.79350112  0.25270602  0.34703735    -0.06900
C945        C  0.75705174  0.24241515  0.36512433     0.06600
C946        C  0.71297614  0.22702005  0.35386449    -0.01900
Br947      Br  0.66236059  0.20992732  0.37712918    -0.01600
H948        H  0.67170580  0.21192849  0.31647028     0.10500
H949        H  0.82720511  0.26586372  0.35525579     0.08600
Br950      Br  0.83776271  0.26750997  0.29578249    -0.02000
C951        C  0.90584699  0.15459781  0.41823096    -0.08700
C952        C  0.88096874  0.11236813  0.42366565     0.07500
C953        C  0.83210374  0.11038570  0.41690500    -0.02400
C954        C  0.80847607  0.15199701  0.40819300    -0.06900
C955        C  0.83307421  0.19553567  0.40563689     0.06600
C956        C  0.88273823  0.19523693  0.40858171    -0.01900
Br957      Br  0.92095996  0.24970902  0.39998063    -0.01600
H958        H  0.94379100  0.15611389  0.42160733     0.10500
H959        H  0.77037117  0.15123654  0.40581359     0.08600
Br960      Br  0.79517379  0.05375937  0.42238254    -0.02000
C961        C  0.65478244  0.38408326  0.40178909    -0.08700
C962        C  0.63144862  0.37478231  0.42654541     0.07500
C963        C  0.64320397  0.33238690  0.44080062    -0.02400
C964        C  0.67848136  0.30243293  0.43097938    -0.06900
C965        C  0.70403002  0.31404195  0.40758058     0.06600
C966        C  0.69109860  0.35470966  0.39262810    -0.01900
Br967      Br  0.72545602  0.37383408  0.36110424    -0.01600
H968        H  0.64654921  0.41575900  0.39008536     0.10500
H969        H  0.68922747  0.27209695  0.44326143     0.08600
Br970      Br  0.59914632  0.30256215  0.96418127    -0.02000
N971        N  0.76576451  0.25463451  0.89417370    -0.03000
C972        C  0.80548576  0.24186672  0.90898963    -0.00400
C973        C  0.81732464  0.27556606  0.92898443    -0.23300
C974        C  0.78444551  0.31031143  0.92715683    -0.23500
C975        C  0.75275434  0.29675341  0.90636160    -0.00500
H976        H  0.84629207  0.27405413  0.94385993     0.13300
H977        H  0.78161682  0.34079172  0.94087956     0.13300
Zn978      Zn  0.93992068  0.47628224  0.93173231     1.49700
Zn979      Zn  0.02092305  0.44025003  0.97478960     1.49400
Zn980      Zn  0.54863651  0.50685810  0.92828777     1.49100
Zn981      Zn  0.98617054  0.04049639  0.97511423     1.49500
O982        O  0.99895707  0.49044777  0.95159161    -1.83600
O983        O  0.90793521  0.41766380  0.95008138    -0.74300
O984        O  0.57326065  0.40356975  0.95895391    -0.74100
O985        O  0.51945632  0.51753558  0.89073120    -0.73600
O986        O  0.96765617  0.39445766  0.97760902    -0.74300
O987        O  0.95472899  0.46961497  0.89085421    -0.73900
O988        O  0.58877480  0.44922966  0.92338604    -0.74500
O989        O  0.55272562  0.08046621  0.98248724    -0.73900
O990        O  0.03048067  0.46233708  0.51443445    -0.74600
O991        O  0.59108476  0.06303368  0.94432530    -0.74000
O992        O  0.97171989  0.01410804  0.51086387    -0.74500
O993        O  0.93681864  0.08150668  0.95634941    -0.74400
O994        O  0.90211263  0.03082066  0.92626413    -0.74200
C995        C  0.92561683  0.38908646  0.96808829     0.77600
C996        C  0.59568492  0.41114312  0.93687427     0.78100
C997        C  0.98401446  0.49496461  0.87755143     0.77100
C998        C  0.58846079  0.08476718  0.96759077     0.77400
C999        C  0.99891841  0.48657535  0.52643659     0.78600
C1000       C  0.90638406  0.07252916  0.93694016     0.77600
N1001       N  0.77916955  0.21341928  0.01376578    -0.03000
C1002       C  0.76316305  0.17175042  0.00184751    -0.00400
C1003       C  0.79474667  0.15481623  0.98319413    -0.23300
C1004       C  0.83007619  0.18786590  0.98217940    -0.23500
C1005       C  0.81943546  0.22424451  0.00039226    -0.00500
H1006       H  0.78946926  0.12456685  0.96935266     0.13300
H1007       H  0.85865385  0.18729998  0.96801851     0.13300
N1008       N  0.50513998  0.01150523  0.64413191    -0.03000
C1009       C  0.99479077  0.05436085  0.65566206    -0.00400
C1010       C  0.02122264  0.06402225  0.67940962    -0.23300
C1011       C  0.54199224  0.51741353  0.68549832    -0.23500
C1012       C  0.53356438  0.48724338  0.66323436    -0.00500
H1013       H  0.01689372  0.09357842  0.69345659     0.13300
H1014       H  0.56825117  0.51275735  0.70177079     0.13300
Zn1015     Zn  0.75509199  0.18454413  0.72074344     1.49700
Zn1016     Zn  0.78869488  0.26391174  0.67893759     1.49400
Zn1017     Zn  0.68524646  0.22820283  0.67635660     1.49100
Zn1018     Zn  0.72162166  0.28938350  0.72668078     1.49500
O1019       O  0.73837424  0.24127712  0.70069696    -1.83600
O1020       O  0.80968618  0.15063314  0.70029455    -0.74300
O1021       O  0.76471721  0.27347710  0.63951528    -0.74100
O1022       O  0.64477791  0.17850214  0.69522425    -0.73600
O1023       O  0.83363472  0.21043991  0.67431258    -0.74300
O1024       O  0.69536482  0.14407617  0.72484348    -0.73900
O1025       O  0.70856982  0.21673795  0.63747208    -0.74500
O1026       O  0.66782336  0.32879783  0.71017396    -0.73900
O1027       O  0.82277661  0.32174944  0.69764907    -0.74600
O1028       O  0.64681986  0.28716941  0.67222616    -0.74000
O1029       O  0.77583440  0.33501287  0.73256320    -0.74500
O1030       O  0.71400090  0.26018285  0.76442449    -0.74400
O1031       O  0.77025192  0.20547100  0.76086248    -0.74200
C1032       C  0.83767036  0.16769856  0.68244078     0.77600
C1033       C  0.73791058  0.24428590  0.62568522     0.78100
C1034       C  0.65352545  0.14954979  0.71493267     0.77100
C1035       C  0.64435348  0.32443565  0.68726434     0.77400
C1036       C  0.81277731  0.34499394  0.71958555     0.78600
C1037       C  0.74451200  0.23247351  0.77559062     0.77600
N1038       N  0.47672119  0.52731759  0.76217866    -0.03000
C1039       C  0.92998208  0.50806795  0.74612359    -0.00400
C1040       C  0.91395362  0.54314458  0.72881284    -0.23300
C1041       C  0.44694646  0.08059545  0.73267724    -0.23500
C1042       C  0.48225606  0.06555346  0.75093554    -0.00500
H1043       H  0.88279251  0.54149041  0.71542710     0.13300
H1044       H  0.44715171  0.11190348  0.71986788     0.13300
C1045       C  0.57529313  0.15624946  0.73562016    -0.08700
C1046       C  0.61305923  0.12684568  0.72877298     0.07500
C1047       C  0.61177919  0.07869948  0.73700412    -0.02400
C1048       C  0.57029115  0.05957886  0.74807831    -0.06900
C1049       C  0.53030017  0.08812030  0.75162479     0.06600
C1050       C  0.53506319  0.13771459  0.74771498    -0.01900
Br1051     Br  0.98377121  0.18667247  0.75019939    -0.01600
H1052       H  0.57705359  0.19414395  0.73152217     0.10500
H1053       H  0.56787771  0.02153604  0.75126754     0.08600
Br1054     Br  0.66323911  0.03649998  0.73055449    -0.02000
C1055       C  0.85771198  0.46106205  0.75406307    -0.08700
C1056       C  0.90519664  0.46135313  0.74700356     0.07500
C1057       C  0.92291145  0.42139405  0.73302520    -0.02400
C1058       C  0.89269531  0.38350968  0.72476468    -0.06900
C1059       C  0.84439795  0.38430223  0.73042867     0.06600
C1060       C  0.82738601  0.42318983  0.74617979    -0.01900
Br1061     Br  0.76238984  0.43033384  0.75538325    -0.01600
H1062       H  0.84334280  0.49217416  0.76415615     0.10500
H1063       H  0.90686609  0.35387934  0.71321931     0.08600
Br1064     Br  0.98701058  0.41926197  0.72223090    -0.02000
C1065       C  0.61095162  0.44879467  0.66581310    -0.08700
C1066       C  0.56236488  0.44383198  0.65969725     0.07500
C1067       C  0.54210420  0.39759595  0.65903900    -0.02400
C1068       C  0.56942541  0.35841049  0.66739854    -0.06900
C1069       C  0.61654391  0.36490834  0.67673783     0.06600
C1070       C  0.63783772  0.41015509  0.67448157    -0.01900
Br1071     Br  0.70365058  0.42142073  0.68300244    -0.01600
H1072       H  0.62739577  0.48388031  0.66603176     0.10500
H1073       H  0.55319991  0.32328399  0.66795507     0.08600
Br1074     Br  0.97854527  0.38320694  0.65170768    -0.02000
C1075       C  0.95228180  0.12920161  0.64927406    -0.08700
C1076       C  0.94945113  0.07939684  0.65099083     0.07500
C1077       C  0.90696257  0.05874774  0.65986629    -0.02400
C1078       C  0.87035124  0.08791296  0.66898479    -0.06900
C1079       C  0.87535865  0.13786988  0.67012110     0.06600
C1080       C  0.91646045  0.15842994  0.65894384    -0.01900
Br1081     Br  0.93002921  0.22585793  0.65929261    -0.01600
H1082       H  0.98507766  0.14568395  0.64328267     0.10500
H1083       H  0.83875157  0.07124277  0.67654679     0.08600
Br1084     Br  0.88337148  0.49166495  0.65885492    -0.02000
C1085       C  0.72280610  0.25641715  0.54761978    -0.08700
C1086       C  0.76158907  0.23018759  0.53873163     0.07500
C1087       C  0.79145416  0.20847754  0.55868295    -0.02400
C1088       C  0.78278636  0.21363318  0.58676313    -0.06900
C1089       C  0.74434207  0.23986698  0.59567929     0.06600
C1090       C  0.71439093  0.26187132  0.57596832    -0.01900
Br1091     Br  0.66273271  0.30048138  0.58704254    -0.01600
H1092       H  0.69913927  0.27255929  0.53254794     0.10500
H1093       H  0.80604160  0.19663484  0.60178666     0.08600
Br1094     Br  0.84348489  0.16935970  0.54869817    -0.02000
C1095       C  0.85011235  0.35346638  0.98518145    -0.08700
C1096       C  0.89799084  0.34846549  0.97900723     0.07500
C1097       C  0.92032489  0.30491383  0.98529873    -0.02400
C1098       C  0.89470004  0.26739146  0.99622557    -0.06900
C1099       C  0.84597657  0.27050474  0.00009271     0.06600
C1100       C  0.82393045  0.31489963  0.99555546    -0.01900
Br1101     Br  0.75758155  0.32353252  0.99992182    -0.01600
H1102       H  0.83268376  0.38701816  0.98123975     0.10500
H1103       H  0.91234856  0.23369480  0.99943362     0.08600
Br1104     Br  0.98442678  0.29135437  0.97633183    -0.02400
C1105       C  0.64851106  0.10302184  0.00466499    -0.08700
C1106       C  0.62873156  0.11351983  0.97845941     0.07500
C1107       C  0.64958603  0.14896961  0.96259454    -0.02400
C1108       C  0.69113802  0.17149017  0.97226420    -0.06900
C1109       C  0.71307467  0.15834594  0.99745108     0.06600
C1110       C  0.69099548  0.12454839  0.01400428    -0.01900
Br1111     Br  0.71978804  0.10366078  0.04803670    -0.01600
H1112       H  0.63251191  0.07577445  0.01710327     0.10500
H1113       H  0.70839842  0.19685799  0.95914619     0.08600
Br1114     Br  0.62292865  0.16662823  0.92744515    -0.02000
C1115       C  0.51387575  0.47883663  0.83195285    -0.08700
C1116       C  0.97832917  0.49899896  0.84740210     0.07500
C1117       C  0.96589038  0.04325527  0.83726301    -0.02400
C1118       C  0.96397899  0.05133667  0.80893436    -0.06900
C1119       C  0.47955760  0.51727645  0.79136255     0.06600
C1120       C  0.51358976  0.48687086  0.80342735    -0.01900
Br1121     Br  0.56004611  0.45463749  0.78271993    -0.01600
H1122       H  0.54112072  0.45682688  0.84124633     0.10500
H1123       H  0.94539310  0.08221960  0.80116045     0.08600
Br1124     Br  0.93685481  0.08878657  0.86098867    -0.02000
C1125       C  0.53515041  0.03033021  0.57031146    -0.08700
C1126       C  0.99866488  0.48838094  0.55676374     0.07500
C1127       C  0.96273201  0.46672068  0.57180543    -0.02400
C1128       C  0.96286366  0.47196322  0.60069214    -0.06900
C1129       C  0.99835282  0.49886062  0.61474329     0.06600
C1130       C  0.53486765  0.03573482  0.59901308    -0.01900
Br1131     Br  0.57793224  0.08119487  0.61620579    -0.01600
H1132       H  0.55929021  0.05167450  0.55859073     0.10500
H1133       H  0.93538258  0.45498546  0.61210202     0.08600
Br1134     Br  0.91386089  0.42882140  0.55372833    -0.02000
C1135       C  0.71046049  0.23372980  0.82247493    -0.08700
C1136       C  0.75049660  0.23302615  0.80618685     0.07500
C1137       C  0.79534342  0.23627439  0.81946530    -0.02400
C1138       C  0.79925862  0.24225279  0.84820679    -0.06900
C1139       C  0.75923885  0.24383151  0.86477285     0.06600
C1140       C  0.71440977  0.23814671  0.85139547    -0.01900
Br1141     Br  0.65718709  0.23324692  0.87076846    -0.01600
H1142       H  0.67572216  0.23048426  0.81259693     0.10500
H1143       H  0.83412774  0.24732769  0.85756551     0.08600
Br1144     Br  0.85256125  0.23700933  0.79934010    -0.02000
C1145       C  0.90411850  0.15546760  0.92047264    -0.08700
C1146       C  0.87924131  0.11293721  0.92507563     0.07500
C1147       C  0.83062740  0.11071167  0.91770151    -0.02400
C1148       C  0.80693412  0.15246024  0.90945879    -0.06900
C1149       C  0.83149365  0.19605773  0.90739971     0.06600
C1150       C  0.88109171  0.19620762  0.91107973    -0.01900
Br1151     Br  0.91930279  0.25170780  0.90449772    -0.01600
H1152       H  0.94192971  0.15718887  0.92443673     0.10500
H1153       H  0.76888716  0.15157587  0.90666677     0.08600
Br1154     Br  0.79418472  0.05325152  0.92128490    -0.02000
C1155       C  0.66049795  0.39152186  0.90475688    -0.08700
C1156       C  0.63118344  0.37660483  0.92617360     0.07500
C1157       C  0.63764688  0.32999375  0.93653158    -0.02400
C1158       C  0.67449775  0.30170576  0.92701584    -0.06900
C1159       C  0.70520518  0.31803757  0.90687847     0.06600
C1160       C  0.69720686  0.36302717  0.89538763    -0.01900
Br1161     Br  0.73869101  0.38866834  0.86870099    -0.01600
H1162       H  0.65647125  0.42663066  0.89596275     0.10500
H1163       H  0.68117234  0.26774880  0.93670006     0.08600
Br1164     Br  0.61692184  0.31496355  0.47534577    -0.02000
N1165       N  0.76941157  0.75418485  0.39340970    -0.03000
C1166       C  0.80999291  0.74094230  0.40703888    -0.00400
C1167       C  0.82372970  0.77467851  0.42666158    -0.23300
C1168       C  0.79123351  0.80994549  0.42560605    -0.23500
C1169       C  0.75810175  0.79667373  0.40556583    -0.00500
H1170       H  0.85358491  0.77276191  0.44084951     0.13300
H1171       H  0.78969366  0.84059164  0.43929818     0.13300
Zn1172     Zn  0.94544670  0.97112874  0.42893374     1.49700
Zn1173     Zn  0.02318613  0.93676912  0.47362109     1.49400
Zn1174     Zn  0.54966156  0.00263948  0.42729661     1.49100
Zn1175     Zn  0.98581352  0.53864622  0.47581052     1.49500
O1176       O  0.00196236  0.98689994  0.45042677    -1.83600
O1177       O  0.91291950  0.91230563  0.44696828    -0.74300
O1178       O  0.58030883  0.90357346  0.45892390    -0.74100
O1179       O  0.51954052  0.01590807  0.39030506    -0.73600
O1180       O  0.97044334  0.89052186  0.47649077    -0.74300
O1181       O  0.96602802  0.96390320  0.38905517    -0.73900
O1182       O  0.59044424  0.94617103  0.42135131    -0.74500
O1183       O  0.54950809  0.57670391  0.48505505    -0.73900
O1184       O  0.03191174  0.96588032  0.01395157    -0.74600
O1185       O  0.58934543  0.55904207  0.44747467    -0.74000
O1186       O  0.97193231  0.51772481  0.01314351    -0.74500
O1187       O  0.93666684  0.57974919  0.45647499    -0.74400
O1188       O  0.90305517  0.52929154  0.42577893    -0.74200
C1189       C  0.92921803  0.88461113  0.46587675     0.77600
C1190       C  0.60053349  0.91014908  0.43601111     0.78100
C1191       C  0.99268195  0.99414521  0.37721903     0.77100
C1192       C  0.58594953  0.58100231  0.47065754     0.77400
C1193       C  0.99990597  0.98977288  0.02585440     0.78600
C1194       C  0.90697825  0.57087452  0.43661561     0.77600
N1195       N  0.77921203  0.71289304  0.51244040    -0.03000
C1196       C  0.76045190  0.67197140  0.50095504    -0.00400
C1197       C  0.78922064  0.65450575  0.48090169    -0.23300
C1198       C  0.82577651  0.68611363  0.47898748    -0.23500
C1199       C  0.81848185  0.72241276  0.49784552    -0.00500
H1200       H  0.78150286  0.62465876  0.46709954     0.13300
H1201       H  0.85308891  0.68464267  0.46404333     0.13300
N1202       N  0.49543091  0.50793447  0.14493382    -0.03000
C1203       C  0.97895203  0.54809082  0.15734384    -0.00400
C1204       C  0.00469028  0.55844980  0.18116522    -0.23300
C1205       C  0.54107008  0.02742465  0.18481106    -0.23500
C1206       C  0.53555927  0.99853821  0.16176008    -0.00500
H1207       H  0.00004342  0.58870219  0.19458540     0.13300
H1208       H  0.56577723  0.02238618  0.20181509     0.13300
Zn1209     Zn  0.74146114  0.68561982  0.22084493     1.49700
Zn1210     Zn  0.78022711  0.76474806  0.18095771     1.49400
Zn1211     Zn  0.67509037  0.73446816  0.17687932     1.49100
Zn1212     Zn  0.71289378  0.79130262  0.22839714     1.49500
O1213       O  0.72813689  0.74367466  0.20166872    -1.83600
O1214       O  0.79451904  0.64932906  0.19978181    -0.74300
O1215       O  0.75816915  0.77665358  0.14151825    -0.74100
O1216       O  0.63044594  0.68685469  0.19508692    -0.73600
O1217       O  0.82327872  0.70965868  0.17602082    -0.74300
O1218       O  0.67851643  0.64960063  0.22488273    -0.73900
O1219       O  0.69894741  0.72328858  0.13791940    -0.74500
O1220       O  0.66238233  0.83500462  0.21221636    -0.73900
O1221       O  0.81570049  0.82045971  0.20081546    -0.74600
O1222       O  0.64201741  0.79635340  0.17317524    -0.74000
O1223       O  0.76864266  0.83376752  0.23551013    -0.74500
O1224       O  0.70402782  0.76112073  0.26569875    -0.74400
O1225       O  0.75928871  0.70571464  0.26070142    -0.74200
C1226       C  0.82449810  0.66607795  0.18290770     0.77600
C1227       C  0.73050230  0.74939390  0.12692985     0.78100
C1228       C  0.63710327  0.65712738  0.21471275     0.77100
C1229       C  0.64082134  0.83321225  0.18862621     0.77400
C1230       C  0.80631470  0.84284845  0.22315373     0.78600
C1231       C  0.73518556  0.73325699  0.27604834     0.77600
N1232       N  0.46535566  0.01852128  0.26174419    -0.03000
C1233       C  0.91697841  0.00887575  0.25036063    -0.00400
C1234       C  0.89956482  0.04072979  0.23137547    -0.23300
C1235       C  0.42879336  0.58022835  0.23111122    -0.23500
C1236       C  0.46437857  0.57056550  0.25044663    -0.00500
H1237       H  0.86806072  0.03620675  0.21842002     0.13300
H1238       H  0.42817280  0.60856645  0.21624583     0.13300
C1239       C  0.55496317  0.66290250  0.23119618    -0.08700
C1240       C  0.59508426  0.63469278  0.22763818     0.07500
C1241       C  0.59455352  0.58787247  0.23828400    -0.02400
C1242       C  0.55286064  0.56875676  0.24914101    -0.06900
C1243       C  0.51133847  0.59573851  0.25006941     0.06600
C1244       C  0.51413467  0.64445653  0.24289566    -0.01900
Br1245     Br  0.96665998  0.68584108  0.24721297    -0.01600
H1246       H  0.55537347  0.69989101  0.22495125     0.10500
H1247       H  0.55186252  0.53140852  0.25457452     0.08600
Br1248     Br  0.64785351  0.54662639  0.23585771    -0.02000
C1249       C  0.85686186  0.95038749  0.26453645    -0.08700
C1250       C  0.89789276  0.95970124  0.25027711     0.07500
C1251       C  0.91122986  0.92740765  0.22954428    -0.02400
C1252       C  0.88217975  0.88852133  0.22198746    -0.06900
C1253       C  0.83904493  0.88076324  0.23473399     0.06600
C1254       C  0.82767145  0.91116674  0.25734173    -0.01900
Br1255     Br  0.77187929  0.90454240  0.27857988    -0.01600
H1256       H  0.84585965  0.97555200  0.28016798     0.10500
H1257       H  0.89260163  0.86552565  0.20516361     0.08600
Br1258     Br  0.96698028  0.93761833  0.20917245    -0.02000
C1259       C  0.61247105  0.96020334  0.16913394    -0.08700
C1260       C  0.56566237  0.95568675  0.15867869     0.07500
C1261       C  0.54663271  0.90927475  0.15443390    -0.02400
C1262       C  0.57204015  0.86966669  0.16387173    -0.06900
C1263       C  0.61588218  0.87540172  0.17791127     0.06600
C1264       C  0.63706713  0.92100961  0.17932956    -0.01900
Br1265     Br  0.69940022  0.93223031  0.19501068    -0.01600
H1266       H  0.62854321  0.99529742  0.17176676     0.10500
H1267       H  0.55640506  0.83435797  0.16144454     0.08600
Br1268     Br  0.98416014  0.89638765  0.13988886    -0.02000
C1269       C  0.93832620  0.62390595  0.14969598    -0.08700
C1270       C  0.93431930  0.57417390  0.15163131     0.07500
C1271       C  0.89098335  0.55494375  0.16010642    -0.02400
C1272       C  0.85516741  0.58517557  0.16931180    -0.06900
C1273       C  0.86136501  0.63505578  0.17036640     0.06600
C1274       C  0.90294960  0.65428380  0.15889558    -0.01900
Br1275     Br  0.91759168  0.72141322  0.15757132    -0.01600
H1276       H  0.97158190  0.63944350  0.14374198     0.10500
H1277       H  0.82308769  0.56936111  0.17678353     0.08600
Br1278     Br  0.88531731  0.99111767  0.16212475    -0.02000
C1279       C  0.71843224  0.75714848  0.04838287    -0.08700
C1280       C  0.76065434  0.73558898  0.04063386     0.07500
C1281       C  0.79166828  0.71826034  0.06151938    -0.02400
C1282       C  0.78095395  0.72371266  0.08930042    -0.06900
C1283       C  0.73900114  0.74514816  0.09707804     0.06600
C1284       C  0.70763191  0.76235990  0.07643820    -0.01900
Br1285     Br  0.65084630  0.79441256  0.08578551    -0.01600
H1286       H  0.69382484  0.76962198  0.03257752     0.10500
H1287       H  0.80513740  0.71002011  0.10501463     0.08600
Br1288     Br  0.84733062  0.68304459  0.05346687    -0.02000
C1289       C  0.85369261  0.85093766  0.48376083    -0.08700
C1290       C  0.90085547  0.84442141  0.47659834     0.07500
C1291       C  0.92192521  0.79989106  0.48189463    -0.02400
C1292       C  0.89542981  0.76262833  0.49260109    -0.06900
C1293       C  0.84709552  0.76745337  0.49744867     0.06600
C1294       C  0.82663082  0.81290191  0.49395055    -0.01900
Br1295     Br  0.76091792  0.82395109  0.49921023    -0.01600
H1296       H  0.83739128  0.88531458  0.48063241     0.10500
H1297       H  0.91186246  0.72809706  0.49487633     0.08600
Br1298     Br  0.98514186  0.78531420  0.47164265    -0.02400
C1299       C  0.64923285  0.59849711  0.50651209    -0.08700
C1300       C  0.62575058  0.61089386  0.48160896     0.07500
C1301       C  0.64226006  0.65016138  0.46690718    -0.02400
C1302       C  0.68379112  0.67381675  0.47581264    -0.06900
C1303       C  0.70977035  0.65877148  0.49926915     0.06600
C1304       C  0.69133029  0.62187126  0.51523678    -0.01900
Br1305     Br  0.72458904  0.60004161  0.54767123    -0.01600
H1306       H  0.63634445  0.56878401  0.51832451     0.10500
H1307       H  0.69803172  0.70160813  0.46313800     0.08600
Br1308     Br  0.60947761  0.67174298  0.43429478    -0.02000
C1309       C  0.50160480  0.96378422  0.32970467    -0.08700
C1310       C  0.98633735  0.00203749  0.34744085     0.07500
C1311       C  0.97042791  0.54687216  0.33820514    -0.02400
C1312       C  0.96322341  0.55392962  0.30994452    -0.06900
C1313       C  0.47365669  0.01094186  0.29078205     0.06600
C1314       C  0.49822008  0.97119621  0.30109064    -0.01900
Br1315     Br  0.52884137  0.92739809  0.27721600    -0.01600
H1316       H  0.52125500  0.93367781  0.33762517     0.10500
H1317       H  0.94925797  0.58769905  0.30299013     0.08600
Br1318     Br  0.95623617  0.59844954  0.36280526    -0.02000
C1319       C  0.52945784  0.53061955  0.07208416    -0.08700
C1320       C  0.99930226  0.99189889  0.05627181     0.07500
C1321       C  0.95709645  0.98956081  0.07082113    -0.02400
C1322       C  0.95826672  0.99601383  0.09957435    -0.06900
C1323       C  0.00087500  0.00530870  0.11431725     0.06600
C1324       C  0.52774785  0.53436893  0.10081563    -0.01900
Br1325     Br  0.56879414  0.58023662  0.11932573    -0.01600
H1326       H  0.55354502  0.55331031  0.06115610     0.10500
H1327       H  0.92568552  0.99395542  0.11034063     0.08600
Br1328     Br  0.89714644  0.97642625  0.05260223    -0.02000
C1329       C  0.70717743  0.72978043  0.32433120    -0.08700
C1330       C  0.74462743  0.73457507  0.30629153     0.07500
C1331       C  0.79035093  0.74361351  0.31745604    -0.02400
C1332       C  0.79773540  0.74839257  0.34606152    -0.06900
C1333       C  0.76034204  0.74394224  0.36430610     0.06600
C1334       C  0.71478266  0.73374178  0.35307999    -0.01900
Br1335     Br  0.66211865  0.72279577  0.37571642    -0.01600
H1336       H  0.67185231  0.72265053  0.31600555     0.10500
H1337       H  0.83282288  0.75733553  0.35410236     0.08600
Br1338     Br  0.84327558  0.75425598  0.29449591    -0.02000
C1339       C  0.90625804  0.65285652  0.41875309    -0.08700
C1340       C  0.88054245  0.61123805  0.42423224     0.07500
C1341       C  0.83187708  0.60961979  0.41693892    -0.02400
C1342       C  0.80894900  0.65149613  0.40813140    -0.06900
C1343       C  0.83448516  0.69435574  0.40517485     0.06600
C1344       C  0.88407207  0.69334374  0.40836856    -0.01900
Br1345     Br  0.92322621  0.74711027  0.39970287    -0.01600
H1346       H  0.94412186  0.65392081  0.42256703     0.10500
H1347       H  0.77086019  0.65140860  0.40563525     0.08600
Br1348     Br  0.79458703  0.55287921  0.42122832    -0.02000
C1349       C  0.66555145  0.89128782  0.40394187    -0.08700
C1350       C  0.63694423  0.87655795  0.42572194     0.07500
C1351       C  0.64462203  0.83071763  0.43682654    -0.02400
C1352       C  0.68123991  0.80251139  0.42720239    -0.06900
C1353       C  0.71098795  0.81841198  0.40657506     0.06600
C1354       C  0.70248567  0.86298682  0.39468371    -0.01900
Br1355     Br  0.74327063  0.88807667  0.36745310    -0.01600
H1356       H  0.66072312  0.92601810  0.39478463     0.10500
H1357       H  0.68863783  0.76903331  0.43719570     0.08600
Br1358     Br  0.61910671  0.81697486  0.97253496    -0.02000
N1359       N  0.77309900  0.76169343  0.89441873    -0.03000
C1360       C  0.81388468  0.75017502  0.90838669    -0.00400
C1361       C  0.82658747  0.78528191  0.92747866    -0.23300
C1362       C  0.79293345  0.81947112  0.92568974    -0.23500
C1363       C  0.76009360  0.80412702  0.90593257    -0.00500
H1364       H  0.85587393  0.78470599  0.94223411     0.13300
H1365       H  0.79018242  0.85048592  0.93898487     0.13300
Zn1366     Zn  0.94561110  0.97314295  0.92946296     1.49700
Zn1367     Zn  0.02395143  0.93990894  0.97460040     1.49400
Zn1368     Zn  0.55037765  0.00902433  0.92749802     1.49100
Zn1369     Zn  0.98800416  0.54248898  0.97586383     1.49500
O1370       O  0.00168369  0.98947467  0.95114129    -1.83600
O1371       O  0.91328810  0.91604728  0.94870104    -0.74300
O1372       O  0.57872315  0.90783090  0.95829000    -0.74100
O1373       O  0.52005951  0.02027965  0.89029223    -0.73600
O1374       O  0.97097622  0.89433568  0.97815095    -0.74300
O1375       O  0.96581524  0.96554972  0.88939998    -0.73900
O1376       O  0.59234809  0.95245594  0.92202200    -0.74500
O1377       O  0.55035146  0.58163343  0.98155810    -0.73900
O1378       O  0.03162977  0.96309879  0.51268038    -0.74600
O1379       O  0.59090559  0.56012967  0.94490239    -0.74000
O1380       O  0.96922822  0.51165943  0.51273558    -0.74500
O1381       O  0.94034675  0.58585905  0.95746786    -0.74400
O1382       O  0.89856456  0.53557365  0.93032806    -0.74200
C1383       C  0.92927713  0.88924313  0.96811708     0.77600
C1384       C  0.60055362  0.91512322  0.93601861     0.78100
C1385       C  0.99299297  0.99524628  0.87749617     0.77100
C1386       C  0.58700787  0.58396187  0.96736779     0.77400
C1387       C  0.00128254  0.98903159  0.52465332     0.78600
C1388       C  0.90722023  0.57772824  0.93950150     0.77600
N1389       N  0.76954847  0.72623689  0.01189407    -0.03000
C1390       C  0.75156259  0.68764612  0.99779561    -0.00400
C1391       C  0.78051623  0.67353391  0.97712987    -0.23300
C1392       C  0.81799623  0.70423218  0.97809973    -0.23500
C1393       C  0.81023673  0.73685690  0.99899440    -0.00500
H1394       H  0.77375455  0.64488432  0.96239931     0.13300
H1395       H  0.84725891  0.70401195  0.96444939     0.13300
N1396       N  0.49911356  0.50481762  0.64604012    -0.03000
C1397       C  0.98523414  0.54524610  0.65746882    -0.00400
C1398       C  0.01224781  0.55329542  0.68118269    -0.23300
C1399       C  0.54832661  0.01942527  0.68380334    -0.23500
C1400       C  0.54031646  0.99248739  0.66019641    -0.00500
H1401       H  0.01151296  0.58425054  0.69453212     0.13300
H1402       H  0.57432765  0.01248207  0.69988772     0.13300
Zn1403     Zn  0.75783042  0.69267251  0.72205374     1.49700
Zn1404     Zn  0.79432912  0.76963930  0.68027678     1.49400
Zn1405     Zn  0.69029281  0.73669714  0.67717059     1.49100
Zn1406     Zn  0.72672464  0.79771271  0.72740069     1.49500
O1407       O  0.74296012  0.74900527  0.70171982    -1.83600
O1408       O  0.81051838  0.65638759  0.70154482    -0.74300
O1409       O  0.77087009  0.78018473  0.64088992    -0.74100
O1410       O  0.64776313  0.68861449  0.69582241    -0.73600
O1411       O  0.83735881  0.71458142  0.67528987    -0.74300
O1412       O  0.69722207  0.65429477  0.72610523    -0.73900
O1413       O  0.71387277  0.72438466  0.63849467    -0.74500
O1414       O  0.67575860  0.83978408  0.70966247    -0.73900
O1415       O  0.83031148  0.82538039  0.69980136    -0.74600
O1416       O  0.65420214  0.79629398  0.67250468    -0.74000
O1417       O  0.78281058  0.83991690  0.73418370    -0.74500
O1418       O  0.71674995  0.76877575  0.76519806    -0.74400
O1419       O  0.77332979  0.71424339  0.76191505    -0.74200
C1420       C  0.83904573  0.67171640  0.68350267     0.77600
C1421       C  0.74403572  0.75120864  0.62685360     0.78100
C1422       C  0.65574293  0.65992663  0.71573792     0.77100
C1423       C  0.65260422  0.83455309  0.68668455     0.77400
C1424       C  0.82086977  0.84817616  0.72200207     0.78600
C1425       C  0.74736682  0.74128492  0.77648630     0.77600
N1426       N  0.47065273  0.02238031  0.76172978    -0.03000
C1427       C  0.93484511  0.01122743  0.74894313    -0.00400
C1428       C  0.91710829  0.04395617  0.73065811    -0.23300
C1429       C  0.45012398  0.58657661  0.73462217    -0.23500
C1430       C  0.48583851  0.57236296  0.75285902    -0.00500
H1431       H  0.88541451  0.04005350  0.71785377     0.13300
H1432       H  0.44867336  0.61880843  0.72258611     0.13300
C1433       C  0.57727982  0.66542553  0.73658277    -0.08700
C1434       C  0.61510898  0.63669417  0.72897820     0.07500
C1435       C  0.61398268  0.58799764  0.73580906    -0.02400
C1436       C  0.57319225  0.56809755  0.74701511    -0.06900
C1437       C  0.53340098  0.59593931  0.75213542     0.06600
C1438       C  0.53740045  0.64582240  0.74866889    -0.01900
Br1439     Br  0.98238677  0.68199334  0.75789457    -0.01600
H1440       H  0.57876882  0.70353734  0.73313913     0.10500
H1441       H  0.57108210  0.53001082  0.74901214     0.08600
Br1442     Br  0.66486355  0.54618994  0.72742925    -0.02000
C1443       C  0.87211970  0.95583845  0.76274307    -0.08700
C1444       C  0.91476877  0.96258059  0.74966546     0.07500
C1445       C  0.92907746  0.92820169  0.73037593    -0.02400
C1446       C  0.89901417  0.89017973  0.72254719    -0.06900
C1447       C  0.85419643  0.88531784  0.73380801     0.06600
C1448       C  0.84201434  0.91749471  0.75539027    -0.01900
Br1449     Br  0.78386152  0.91487173  0.77470629    -0.01600
H1450       H  0.86060941  0.98253333  0.77736822     0.10500
H1451       H  0.91005895  0.86559813  0.70663893     0.08600
Br1452     Br  0.98704337  0.93500431  0.71171153    -0.02000
C1453       C  0.61827291  0.95601096  0.66019326    -0.08700
C1454       C  0.56944278  0.94994167  0.65504915     0.07500
C1455       C  0.54998092  0.90347537  0.65632800    -0.02400
C1456       C  0.57784834  0.86598355  0.66622991    -0.06900
C1457       C  0.62483843  0.87408833  0.67512401     0.06600
C1458       C  0.64577476  0.91887124  0.67057769    -0.01900
Br1459     Br  0.71155521  0.93135951  0.67853335    -0.01600
H1460       H  0.63408302  0.99127596  0.65896572     0.10500
H1461       H  0.56211973  0.83084902  0.66824852     0.08600
Br1462     Br  0.98964585  0.89859165  0.64010949    -0.02000
C1463       C  0.95158349  0.62485639  0.65182867    -0.08700
C1464       C  0.94346364  0.57537138  0.65169675     0.07500
C1465       C  0.89814662  0.55854421  0.65816661    -0.02400
C1466       C  0.86409660  0.59049561  0.66758650    -0.06900
C1467       C  0.87436295  0.63945884  0.67097095     0.06600
C1468       C  0.91814458  0.65676528  0.66163993    -0.01900
Br1469     Br  0.93810964  0.72241979  0.66521288    -0.01600
H1470       H  0.98647343  0.63835596  0.64746656     0.10500
H1471       H  0.83025027  0.57655999  0.67362061     0.08600
Br1472     Br  0.89950636  0.99111912  0.66400148    -0.02000
C1473       C  0.72509209  0.73864547  0.54867830    -0.08700
C1474       C  0.77111754  0.72808664  0.54059782     0.07500
C1475       C  0.80756583  0.72672590  0.56133049    -0.02400
C1476       C  0.79776692  0.73687002  0.58883515    -0.06900
C1477       C  0.75179092  0.74591730  0.59691692     0.06600
C1478       C  0.71515408  0.74701295  0.57658284    -0.01900
Br1479     Br  0.65148380  0.76066455  0.58588338    -0.01600
H1480       H  0.69662137  0.73941236  0.53325987     0.10500
H1481       H  0.82602387  0.73483228  0.60439163     0.08600
Br1482     Br  0.87024616  0.70482446  0.55496858    -0.02000
C1483       C  0.85130548  0.86113332  0.98490170    -0.08700
C1484       C  0.89917283  0.85214061  0.98053944     0.07500
C1485       C  0.91827950  0.80852734  0.98981563    -0.02400
C1486       C  0.88888447  0.77381116  0.00075217    -0.06900
C1487       C  0.84003718  0.78046663  0.00195716     0.06600
C1488       C  0.82166667  0.82569753  0.99545617    -0.01900
Br1489     Br  0.75561531  0.83887960  0.99694201    -0.01600
H1490       H  0.83645731  0.89514454  0.97905537     0.10500
H1491       H  0.90349827  0.73912120  0.00538285     0.08600
Br1492     Br  0.98276678  0.79076719  0.98474915    -0.02400
C1493       C  0.65953403  0.59292506  0.99646240    -0.08700
C1494       C  0.62631870  0.61350098  0.97829646     0.07500
C1495       C  0.62976371  0.66225618  0.97229327    -0.02400
C1496       C  0.66839814  0.68894733  0.98283557    -0.06900
C1497       C  0.70385331  0.66739094  0.99909966     0.06600
C1498       C  0.69831636  0.61951711  0.00675618    -0.01900
Br1499     Br  0.74542376  0.58825601  0.02909246    -0.01600
H1500       H  0.65615653  0.55566225  0.00186509     0.10500
H1501       H  0.67306952  0.72535336  0.97625410     0.08600
Br1502     Br  0.58438802  0.69235655  0.94817593    -0.02000
C1503       C  0.50400932  0.96991992  0.83090519    -0.08700
C1504       C  0.98808859  0.00230092  0.84758751     0.07500
C1505       C  0.94297423  0.52754398  0.83544328    -0.02400
C1506       C  0.94148583  0.53460363  0.80693151    -0.06900
C1507       C  0.47605717  0.01459874  0.79098655     0.06600
C1508       C  0.50226858  0.97662852  0.80223299    -0.01900
Br1509     Br  0.53753009  0.93412616  0.77998016    -0.01600
H1510       H  0.52505497  0.94135591  0.83953862     0.10500
H1511       H  0.91443912  0.55720481  0.79796838     0.08600
Br1512     Br  0.89740851  0.55939461  0.85733298    -0.02000
C1513       C  0.53736463  0.51099398  0.57280100    -0.08700
C1514       C  0.00268155  0.99278335  0.55498617     0.07500
C1515       C  0.96164680  0.99111793  0.57057908    -0.02400
C1516       C  0.96501969  0.99806017  0.59927602    -0.06900
C1517       C  0.00872174  0.00731136  0.61285027     0.06600
C1518       C  0.53748911  0.51633733  0.60145964    -0.01900
Br1519     Br  0.58977978  0.55042590  0.61874154    -0.01600
H1520       H  0.56702215  0.52448413  0.56157037     0.10500
H1521       H  0.93333983  0.99622396  0.61089086     0.08600
Br1522     Br  0.90050789  0.97809419  0.55385607    -0.02000
C1523       C  0.71637149  0.73426862  0.82423501    -0.08700
C1524       C  0.75443629  0.74269737  0.80694051     0.07500
C1525       C  0.79880152  0.75482079  0.81903829    -0.02400
C1526       C  0.80427083  0.75937411  0.84772365    -0.06900
C1527       C  0.76631888  0.75152162  0.86517936     0.06600
C1528       C  0.72221240  0.73794587  0.85318295    -0.01900
Br1529     Br  0.66986940  0.72244854  0.87549287    -0.01600
H1530       H  0.68211952  0.72453236  0.81520492     0.10500
H1531       H  0.83822433  0.77073229  0.85648499     0.08600
Br1532     Br  0.85225094  0.76970264  0.79724506    -0.02000
C1533       C  0.90874846  0.66030601  0.92210564    -0.08700
C1534       C  0.88196789  0.61915536  0.92730579     0.07500
C1535       C  0.83347950  0.61871588  0.91953872    -0.02400
C1536       C  0.81193863  0.66087453  0.91005843    -0.06900
C1537       C  0.83828659  0.70335541  0.90767171     0.06600
C1538       C  0.88769285  0.70156090  0.91184184    -0.01900
Br1539     Br  0.92822180  0.75492431  0.90440743    -0.01600
H1540       H  0.94654072  0.66053952  0.92619588     0.10500
H1541       H  0.77398010  0.66142456  0.90683104     0.08600
Br1542     Br  0.79417122  0.56345895  0.92423085    -0.02000
C1543       C  0.66101041  0.89187676  0.90168134    -0.08700
C1544       C  0.63648607  0.88064966  0.92578145     0.07500
C1545       C  0.64831873  0.83778001  0.93947608    -0.02400
C1546       C  0.68513760  0.80951967  0.92996566    -0.06900
C1547       C  0.71160975  0.82295992  0.90727484     0.06600
C1548       C  0.69848729  0.86392386  0.89271975    -0.01900
Br1549     Br  0.73377676  0.88513265  0.86200211    -0.01600
H1550       H  0.65270009  0.92394017  0.89035372     0.10500
H1551       H  0.69602024  0.77881412  0.94182891     0.08600
Br1552     Br  0.60847609  0.80430316  0.46582204    -0.02000
loop_ 
_geom_bond_atom_site_label_1 
_geom_bond_atom_site_label_2 
_geom_bond_distance 
_geom_bond_site_symmetry_2 
_ccdc_geom_bond_type 
N1            C5   1.366       .  A
N1            C2   1.363       .  A
N1          C169   1.445       .  S
C2            C3   1.378       .  A
C2          C179   1.489       .  S
C3            C4   1.363       .  A
C3            H6   1.077       .  S
C4            C5   1.375       .  A
C4            H7   1.080       .  S
C5          C189   1.481       .  S
Zn8          O12   1.931       .  S
Zn8          O13   2.095       .  S
Zn8          O17   2.054       .  S
Zn8         O412   2.040       .  S
Zn9          O12   1.898       .  S
Zn9          O16   1.976       .  S
Zn9         O790   2.052       .  S
Zn9         O214   2.033       .  S
Zn10        O788   1.900       .  S
Zn10         O15   2.014       .  S
Zn10         O18   2.022       .  S
Zn10        O409   2.039       .  S
Zn11        O400   1.898   1_545  S
Zn11         O23   2.003       .  S
Zn11        O795   1.986       .  S
Zn11        O216   1.997       .  S
O12        Zn786   1.907       .  S
O12        Zn399   1.894       .  S
O13          C25   1.285       .  A
O14        Zn785   2.062       .  S
O14          C26   1.279       .  A
O15         C803   1.279   1_455  A
O16          C25   1.269       .  A
O17          C27   1.284       .  A
O18          C26   1.275       .  A
O19        Zn787   2.006   1_455  S
O19          C28   1.270       .  A
O20        Zn203   2.036   1_554  S
O20          C29   1.280       .  A
O21        Zn398   2.043       .  S
O21          C28   1.278       .  A
O22        Zn205   1.992   1_554  S
O22         C417   1.274   1_545  A
O23          C30   1.275       .  A
O24        Zn396   2.057   1_545  S
O24          C30   1.277       .  A
C25         C126   1.487       .  S
C26         C186   1.504       .  S
C27         C146   1.475       .  S
C27         O791   1.279       .  A
C28         C136   1.471       .  S
C29         C156   1.465       .  S
C29         O410   1.277       .  A
C30         C176   1.486       .  S
N31          C35   1.362       .  A
N31          C32   1.359       .  A
N31         C310   1.444       .  S
C32          C33   1.376       .  A
C32         C139   1.473       .  S
C33          C34   1.365       .  A
C33          H36   1.079       .  S
C34          C35   1.379       .  A
C34          H37   1.078       .  S
C35         C129   1.488       .  S
N38         C430   1.368   1_545  A
N38         C815   1.368   1_455  A
N38        C1323   1.446       .  S
C39         N814   1.365       .  A
C39          C40   1.372       .  A
C39         C106   1.485       .  S
C40        C1205   1.355       .  A
C40          H43   1.073       .  S
C41          C42   1.375       .  A
C41        C1204   1.357       .  A
C41          H44   1.076       .  S
C42         N426   1.367   1_455  A
C42          C96   1.493       .  S
Zn45         O49   1.921       .  S
Zn45         O50   2.102       .  S
Zn45         O54   2.047       .  S
Zn45         O61   2.043       .  S
Zn46         O49   1.900       .  S
Zn46         O51   2.028       .  S
Zn46         O53   1.990       .  S
Zn46         O57   2.060       .  S
Zn47         O49   1.904       .  S
Zn47         O52   2.027       .  S
Zn47         O55   2.028       .  S
Zn47         O58   1.993       .  S
Zn48         O49   1.913       .  S
Zn48         O56   2.049       .  S
Zn48         O59   1.998       .  S
Zn48         O60   2.034       .  S
O50          C62   1.287       .  A
O51          C63   1.280       .  A
O52          C64   1.280       .  A
O53          C62   1.271       .  A
O54          C64   1.278       .  A
O55          C63   1.281       .  A
O56          C65   1.280       .  A
O57          C66   1.282       .  A
O58          C65   1.269       .  A
O59          C66   1.269       .  A
O60          C67   1.280       .  A
O61          C67   1.283       .  A
C62         C109   1.500       .  S
C63         C119   1.475       .  S
C64          C76   1.490       .  S
C65          C99   1.479       .  S
C66          C89   1.498       .  S
C67         C166   1.480       .  S
N68         C460   1.368       .  A
N68         C845   1.364       .  A
N68         C149   1.445       .  S
C69         N844   1.364       .  A
C69          C70   1.374       .  A
C69          C86   1.480       .  S
C70        C1235   1.364       .  A
C70          H73   1.081       .  S
C71          C72   1.385       .  A
C71        C1234   1.363       .  A
C71          H74   1.080       .  S
C72         N456   1.365       .  A
C72          C79   1.496   1_655  S
C75          C76   1.405       .  A
C75          C80   1.397       .  A
C75          H82   1.084       .  S
C76          C77   1.413       .  A
C77          C78   1.410       .  A
C77         Br84   1.918       .  S
C78          C79   1.408       .  A
C78          H83   1.083       .  S
C79          C80   1.413       .  A
C80        Br857   1.922   1_455  S
Br81        C856   1.922       .  S
C85          C86   1.399       .  A
C85          C90   1.406       .  A
C85          H92   1.084       .  S
C86          C87   1.405       .  A
C87          C88   1.397       .  A
C87         Br94   1.904       .  S
C88          C89   1.404       .  A
C88          H93   1.083       .  S
C89          C90   1.426       .  A
C90         Br91   1.923       .  S
C95          C96   1.409       .  A
C95         C100   1.395       .  A
C95         H102   1.084       .  S
C96          C97   1.414       .  A
C97          C98   1.407       .  A
C97        Br880   1.915   1_455  S
C98          C99   1.406       .  A
C98         H103   1.083       .  S
C99         C100   1.406       .  A
C100       Br101   1.923       .  S
Br104       C873   1.913       .  S
C105        C106   1.402       .  A
C105        C110   1.400       .  A
C105        H112   1.084       .  S
C106        C107   1.413       .  A
C107        C108   1.410       .  A
C107       Br502   1.917   1_545  S
C108        C109   1.407       .  A
C108        H113   1.083       .  S
C109        C110   1.421       .  A
C110       Br111   1.925       .  S
Br114       C495   1.915       .  S
C115        C116   1.406       .  A
C115        C120   1.408       .  A
C115        H122   1.083       .  S
C116        N225   1.443       .  S
C116        C117   1.414       .  A
C117        C118   1.395       .  A
C117       Br124   1.919       .  S
C118        C119   1.398       .  A
C118        H123   1.084       .  S
C119        C120   1.409       .  A
C120       Br121   1.917       .  S
C125        C126   1.405       .  A
C125        C130   1.409       .  A
C125        H132   1.083       .  S
C126        C127   1.414       .  A
C127        C128   1.396       .  A
C127       Br134   1.920       .  S
C128        C129   1.403       .  A
C128        H133   1.084       .  S
C129        C130   1.414       .  A
C130       Br131   1.916       .  S
C135        C136   1.405       .  A
C135        C140   1.402       .  A
C135        H142   1.084       .  S
C136        C137   1.404       .  A
C137        C138   1.400       .  A
C137       Br144   1.917       .  S
C138        C139   1.405       .  A
C138        H143   1.082       .  S
C139        C140   1.405       .  A
C140       Br141   1.917       .  S
C145        C150   1.404       .  A
C145        C922   1.401       .  A
C145        H152   1.084   1_655  S
C146        C921   1.402       .  A
C146        C535   1.407       .  A
C147        C148   1.391       .  A
C147        C534   1.404   1_545  A
C147       Br154   1.913       .  S
C148       C1313   1.402       .  A
C148        H153   1.083       .  S
C149        C150   1.412       .  A
C149       C1312   1.405       .  A
C150       Br151   1.907   1_655  S
C155        C160   1.396       .  A
C155       C1320   1.398   1_445  A
C155        H162   1.084       .  S
C156        C157   1.406       .  A
C156       C1319   1.398       .  A
C157        C158   1.400       .  A
C157       Br164   1.918       .  S
C158        C159   1.401       .  A
C158        H163   1.078       .  S
C159       N1202   1.439       .  S
C159       C1324   1.413       .  A
C160       C1323   1.418       .  A
C160       Br161   1.920       .  S
C165        C166   1.407       .  A
C165        C170   1.407       .  A
C165        H172   1.083       .  S
C166        C167   1.408       .  A
C167        C168   1.396       .  A
C167       Br174   1.922       .  S
C168        C169   1.407       .  A
C168        H173   1.083       .  S
C169        C170   1.408       .  A
C170       Br171   1.913       .  S
C175        C176   1.404       .  A
C175        C180   1.394       .  A
C175        H182   1.084       .  S
C176        C177   1.413       .  A
C177        C178   1.412       .  A
C177       Br184   1.918       .  S
C178        C179   1.409       .  A
C178        H183   1.083       .  S
C179        C180   1.409       .  A
C180       Br181   1.922       .  S
C185        C186   1.416       .  A
C185        C190   1.404       .  A
C185        H192   1.083       .  S
C186        C187   1.419       .  A
C187        C188   1.403       .  A
C187       Br388   1.922       .  S
C188        C189   1.403       .  A
C188        H193   1.082       .  S
C189        C190   1.402       .  A
C190       Br191   1.918       .  S
Br194       C381   1.922       .  S
N195        C199   1.367       .  A
N195        C196   1.364       .  A
N195        C363   1.448       .  S
C196        C197   1.380       .  A
C196        C373   1.492       .  S
C197        C198   1.363       .  A
C197        H200   1.079       .  S
C198        C199   1.376       .  A
C198        H201   1.080       .  S
C199        C383   1.483       .  S
Zn202       O206   1.932       .  S
Zn202       O207   2.100       .  S
Zn202       O211   2.049       .  S
Zn202       O606   2.050       .  S
Zn203       O206   1.910       .  S
Zn203       O984   2.080       .  S
Zn203       O210   1.975       .  S
Zn204       O982   1.910   1_455  S
Zn204       O209   2.008       .  S
Zn204       O212   2.014       .  S
Zn204       O603   2.047       .  S
Zn205       O594   1.888   1_545  S
Zn205       O989   1.985       .  S
Zn205       O217   2.010       .  S
O206       Zn980   1.900       .  S
O206       Zn593   1.896       .  S
O207        C219   1.287       .  A
O208       Zn979   2.067       .  S
O208        C220   1.280       .  A
O209        C997   1.277   1_455  A
O210        C219   1.269       .  A
O211        C221   1.284       .  A
O212        C220   1.274       .  A
O213       Zn981   1.992   1_455  S
O213        C222   1.270       .  A
O214        C223   1.280       .  A
O215       Zn592   2.036       .  S
O215        C222   1.278       .  A
O216        C611   1.276   1_545  A
O217        C224   1.275       .  A
O218       Zn590   2.060   1_545  S
O218        C224   1.277       .  A
C219        C320   1.493       .  S
C220        C380   1.505       .  S
C221        C340   1.470       .  S
C221        O985   1.278       .  A
C222        C330   1.465       .  S
C223        C350   1.468       .  S
C223        O604   1.276       .  A
C224        C370   1.490       .  S
N225        C229   1.361       .  A
N225        C226   1.358   1_554  A
C226        C227   1.375       .  A
C226        C333   1.469       .  S
C227        C228   1.363       .  A
C227        H230   1.080       .  S
C228        C229   1.377   1_556  A
C228        H231   1.076       .  S
C229        C323   1.483       .  S
N232        C624   1.364   1_545  A
N232       C1009   1.364   1_455  A
N232       C1517   1.445       .  S
C233       N1008   1.362       .  A
C233        C234   1.372       .  A
C233        C300   1.478       .  S
C234       C1399   1.357       .  A
C234        H237   1.074       .  S
C235       C1398   1.355       .  A
C235        C236   1.372       .  A
C235        H238   1.076       .  S
C236        N620   1.364   1_455  A
C236        C290   1.481       .  S
Zn239       O243   1.924       .  S
Zn239       O244   2.085       .  S
Zn239       O248   2.043       .  S
Zn239       O255   2.047       .  S
Zn240       O243   1.912       .  S
Zn240       O245   2.026       .  S
Zn240       O247   1.984       .  S
Zn240       O251   2.055       .  S
Zn241       O243   1.908       .  S
Zn241       O246   2.023       .  S
Zn241       O249   2.029       .  S
Zn241       O252   1.983       .  S
Zn242       O243   1.910       .  S
Zn242       O250   2.056       .  S
Zn242       O253   1.999       .  S
Zn242       O254   2.043       .  S
O244        C256   1.285       .  A
O245        C257   1.280       .  A
O246        C258   1.278       .  A
O247        C256   1.270       .  A
O248        C258   1.277       .  A
O249        C257   1.280       .  A
O250        C259   1.281       .  A
O251        C260   1.280       .  A
O252        C259   1.268       .  A
O253        C260   1.270       .  A
O254        C261   1.281       .  A
O255        C261   1.282       .  A
C256        C303   1.493       .  S
C257        C313   1.476       .  S
C258        C270   1.486       .  S
C259        C293   1.474       .  S
C260        C283   1.490       .  S
C261        C360   1.483       .  S
N262        C654   1.370       .  A
N262       C1039   1.365       .  A
N262        C343   1.444       .  S
C263       N1038   1.363       .  A
C263        C264   1.371       .  A
C263        C280   1.479       .  S
C264       C1429   1.358       .  A
C264        H267   1.078       .  S
C265       C1428   1.362       .  A
C265        C266   1.387       .  A
C265        H268   1.081       .  S
C266        N650   1.364       .  A
C266        C273   1.493   1_655  S
C269        C270   1.404       .  A
C269        C274   1.397       .  A
C269        H276   1.084       .  S
C270        C271   1.411       .  A
C271        C272   1.409       .  A
C271       Br278   1.919       .  S
C272        C273   1.408       .  A
C272        H277   1.082       .  S
C273        C274   1.412       .  A
C274      Br1051   1.922   1_455  S
Br275      C1050   1.921       .  S
C279        C280   1.399       .  A
C279        C284   1.398       .  A
C279        H286   1.084       .  S
C280        C281   1.407       .  A
C281        C282   1.402       .  A
C281       Br288   1.910       .  S
C282        C283   1.407       .  A
C282        H287   1.083       .  S
C283        C284   1.420       .  A
C284       Br285   1.923       .  S
C289        C290   1.407       .  A
C289        C294   1.394       .  A
C289        H296   1.084       .  S
C290        C291   1.410       .  A
C291        C292   1.405       .  A
C291      Br1074   1.917   1_455  S
C292        C293   1.406       .  A
C292        H297   1.083       .  S
C293        C294   1.405       .  A
C294       Br295   1.921       .  S
Br298      C1067   1.917       .  S
C299        C300   1.401       .  A
C299        C304   1.399       .  A
C299        H306   1.084       .  S
C300        C301   1.409       .  A
C301        C302   1.406       .  A
C301       Br696   1.918   1_545  S
C302        C303   1.406       .  A
C302        H307   1.083       .  S
C303        C304   1.420       .  A
C304       Br305   1.924       .  S
Br308       C689   1.919       .  S
C309        C310   1.406       .  A
C309        C314   1.406       .  A
C309        H316   1.083       .  S
C310        C311   1.415       .  A
C311        C312   1.397       .  A
C311       Br318   1.920       .  S
C312        C313   1.399       .  A
C312        H317   1.084       .  S
C313        C314   1.409       .  A
C314       Br315   1.917       .  S
C319        C320   1.407       .  A
C319        C324   1.409       .  A
C319        H326   1.083       .  S
C320        C321   1.420       .  A
C321        C322   1.395   1_556  A
C321       Br328   1.923       .  S
C322        C323   1.399       .  A
C322        H327   1.083       .  S
C323        C324   1.410   1_554  A
C324       Br325   1.915       .  S
C329        C330   1.404   1_554  A
C329        C334   1.400       .  A
C329        H336   1.084       .  S
C330        C331   1.402       .  A
C331        C332   1.396       .  A
C331       Br338   1.919       .  S
C332        C333   1.404       .  A
C332        H337   1.078       .  S
C333        C334   1.405   1_556  A
C334       Br335   1.916       .  S
C339       C1116   1.401   1_455  A
C339        C344   1.402       .  A
C339        H346   1.084       .  S
C340       C1115   1.402       .  A
C340        C729   1.404       .  A
C341        C728   1.403       .  A
C341        C342   1.393       .  A
C341       Br348   1.919       .  S
C342       C1507   1.406       .  A
C342        H347   1.083       .  S
C343       C1506   1.408       .  A
C343        C344   1.412   1_655  A
C344       Br345   1.910       .  S
C349       C1514   1.397   1_545  A
C349        C354   1.394       .  A
C349        H356   1.084       .  S
C350       C1513   1.397       .  A
C350        C351   1.409       .  A
C351        C352   1.404       .  A
C351       Br358   1.919       .  S
C352        C353   1.403       .  A
C352        H357   1.080       .  S
C353       N1396   1.440       .  S
C353       C1518   1.413       .  A
C354       C1517   1.417       .  A
C354       Br355   1.920       .  S
C359        C360   1.408       .  A
C359        C364   1.408       .  A
C359        H366   1.083       .  S
C360        C361   1.408       .  A
C361        C362   1.398       .  A
C361       Br368   1.921       .  S
C362        C363   1.408       .  A
C362        H367   1.083       .  S
C363        C364   1.409       .  A
C364       Br365   1.914       .  S
C369        C370   1.405       .  A
C369        C374   1.396       .  A
C369        H376   1.084       .  S
C370        C371   1.413       .  A
C371        C372   1.411       .  A
C371       Br378   1.918       .  S
C372        C373   1.408       .  A
C372        H377   1.083       .  S
C373        C374   1.412       .  A
C374       Br375   1.922       .  S
C379        C380   1.416       .  A
C379        C384   1.405       .  A
C379        H386   1.083       .  S
C380        C381   1.418       .  A
C381        C382   1.404       .  A
C382        C383   1.404       .  A
C382        H387   1.081       .  S
C383        C384   1.402       .  A
C384       Br385   1.917       .  S
N389        C393   1.365       .  A
N389        C390   1.363       .  A
N389        C557   1.445       .  S
C390        C391   1.380       .  A
C390        C567   1.489       .  S
C391        C392   1.361       .  A
C391        H394   1.079       .  S
C392        C393   1.376       .  A
C392        H395   1.081       .  S
C393        C577   1.480       .  S
Zn396       O400   1.926       .  S
Zn396       O401   2.082       .  S
Zn396       O405   2.047       .  S
Zn397       O400   1.910       .  S
Zn397      O1178   2.069       .  S
Zn397       O404   1.993       .  S
Zn397       O602   2.040       .  S
Zn398      O1176   1.901   1_545  S
Zn398       O403   1.999       .  S
Zn398       O406   2.013   1_545  S
Zn399      O1183   2.011       .  S
Zn399       O604   2.009       .  S
Zn399       O411   2.022       .  S
O400      Zn1174   1.898   1_565  S
O401        C413   1.285       .  A
O402      Zn1173   2.062       .  S
O402        C414   1.279       .  A
O403       C1191   1.278   1_445  A
O404        C413   1.272       .  A
O405        C415   1.282       .  A
O406        C414   1.273       .  A
O407      Zn1175   2.003   1_455  S
O407        C416   1.271       .  A
O408       Zn591   2.040   1_554  S
O408        C417   1.280       .  A
O409        C416   1.278       .  A
O410       Zn593   2.001   1_554  S
O411        C418   1.278       .  A
O412        C418   1.276       .  A
C413        C514   1.488       .  S
C414        C574   1.503       .  S
C415        C534   1.467       .  S
C415       O1179   1.277   1_565  A
C416        C524   1.468       .  S
C417        C544   1.465       .  S
C418        C564   1.487       .  S
N419        C423   1.361       .  A
N419        C420   1.357       .  A
N419        C698   1.442       .  S
C420        C421   1.375       .  A
C420        C527   1.471       .  S
C421        C422   1.365       .  A
C421        H424   1.079       .  S
C422        C423   1.377       .  A
C422        H425   1.075       .  S
C423        C517   1.484       .  S
N426       C1203   1.366       .  A
N426        C935   1.441       .  S
C427       N1202   1.362       .  A
C427        C428   1.371       .  A
C427        C494   1.479       .  S
C428        C817   1.355       .  A
C428        H431   1.075       .  S
C429        C816   1.357       .  A
C429        C430   1.375   1_545  A
C429        H432   1.074       .  S
C430        C484   1.495       .  S
Zn433       O437   1.926       .  S
Zn433       O438   2.087       .  S
Zn433       O442   2.039       .  S
Zn433       O449   2.050       .  S
Zn434       O437   1.908       .  S
Zn434       O439   2.027       .  S
Zn434       O441   1.971       .  S
Zn434       O445   2.052       .  S
Zn435       O437   1.914       .  S
Zn435       O440   2.051       .  S
Zn435       O443   2.057       .  S
Zn435       O446   2.002       .  S
Zn436       O437   1.912       .  S
Zn436       O444   2.043       .  S
Zn436       O447   2.003       .  S
Zn436       O448   2.040       .  S
O438        C450   1.285       .  A
O439        C451   1.280       .  A
O440        C452   1.282       .  A
O441        C450   1.268       .  A
O442        C452   1.277       .  A
O443        C451   1.284       .  A
O444        C453   1.280       .  A
O445        C454   1.280       .  A
O446        C453   1.271       .  A
O447        C454   1.269       .  A
O448        C455   1.279       .  A
O449        C455   1.282       .  A
C450        C497   1.489       .  S
C451        C507   1.483       .  S
C452        C464   1.494       .  S
C453        C487   1.481       .  S
C454        C477   1.497       .  S
C455        C554   1.482       .  S
N456       C1233   1.362       .  A
N456        C537   1.444       .  S
C457       N1232   1.359       .  A
C457        C458   1.372       .  A
C457        C474   1.477   1_545  S
C458        C847   1.363       .  A
C458        H461   1.080       .  S
C459        C846   1.362       .  A
C459        C460   1.386       .  A
C459        H462   1.080       .  S
C460        C467   1.499   1_655  S
C463        C464   1.405       .  A
C463        C468   1.400       .  A
C463        H470   1.084       .  S
C464        C465   1.415       .  A
C465        C466   1.411       .  A
C465       Br472   1.919       .  S
C466        C467   1.407       .  A
C466        H471   1.083       .  S
C467        C468   1.415       .  A
C468      Br1245   1.922   1_455  S
Br469      C1244   1.923       .  S
C473        C474   1.397       .  A
C473        C478   1.403       .  A
C473        H480   1.084       .  S
C474        C475   1.405       .  A
C475        C476   1.399       .  A
C475       Br482   1.909       .  S
C476        C477   1.407       .  A
C476        H481   1.083       .  S
C477        C478   1.425       .  A
C478       Br479   1.923       .  S
C483        C484   1.409       .  A
C483        C488   1.393       .  A
C483        H490   1.084       .  S
C484        C485   1.413       .  A
C485        C486   1.408       .  A
C485      Br1268   1.917   1_455  S
C486        C487   1.408       .  A
C486        H491   1.083       .  S
C487        C488   1.407       .  A
C488       Br489   1.923       .  S
Br492      C1261   1.914       .  S
C493        C494   1.402       .  A
C493        C498   1.397       .  A
C493        H500   1.084       .  S
C494        C495   1.411       .  A
C495        C496   1.406       .  A
C496        C497   1.405       .  A
C496        H501   1.083       .  S
C497        C498   1.419       .  A
C498       Br499   1.925       .  S
C503        C504   1.407       .  A
C503        C508   1.409       .  A
C503        H510   1.083       .  S
C504        N613   1.447       .  S
C504        C505   1.415       .  A
C505        C506   1.398       .  A
C505       Br512   1.920       .  S
C506        C507   1.401       .  A
C506        H511   1.084       .  S
C507        C508   1.410       .  A
C508       Br509   1.916       .  S
C513        C514   1.405       .  A
C513        C518   1.406       .  A
C513        H520   1.083       .  S
C514        C515   1.415       .  A
C515        C516   1.397       .  A
C515       Br522   1.919       .  S
C516        C517   1.403       .  A
C516        H521   1.084       .  S
C517        C518   1.411       .  A
C518       Br519   1.916       .  S
C523        C524   1.404       .  A
C523        C528   1.401       .  A
C523        H530   1.085       .  S
C524        C525   1.403       .  A
C525        C526   1.397       .  A
C525       Br532   1.918       .  S
C526        C527   1.402       .  A
C526        H531   1.090       .  S
C527        C528   1.405       .  A
C528       Br529   1.917       .  S
C533       C1310   1.400   1_565  A
C533        C538   1.401       .  A
C533        H540   1.084   1_655  S
C534       C1309   1.404       .  A
C535        C536   1.396       .  A
C535       Br542   1.912       .  S
C536        C925   1.404       .  A
C536        H541   1.083       .  S
C537        C924   1.406       .  A
C537        C538   1.413   1_545  A
C538       Br539   1.908   1_655  S
C543        C932   1.398   1_455  A
C543        C548   1.397       .  A
C543        H550   1.084       .  S
C544        C931   1.398   1_565  A
C544        C545   1.406       .  A
C545        C546   1.399       .  A
C545       Br552   1.919       .  S
C546        C547   1.402   1_565  A
C546        H551   1.079       .  S
C547        N814   1.440       .  S
C547        C936   1.414       .  A
C548        C935   1.415   1_455  A
C548       Br549   1.920       .  S
C553        C554   1.409       .  A
C553        C558   1.410       .  A
C553        H560   1.083       .  S
C554        C555   1.407       .  A
C555        C556   1.397       .  A
C555       Br562   1.921       .  S
C556        C557   1.406       .  A
C556        H561   1.083       .  S
C557        C558   1.408       .  A
C558       Br559   1.914       .  S
C563        C564   1.404       .  A
C563        C568   1.395       .  A
C563        H570   1.084       .  S
C564        C565   1.415       .  A
C565        C566   1.410       .  A
C565       Br572   1.920       .  S
C566        C567   1.408       .  A
C566        H571   1.083       .  S
C567        C568   1.410       .  A
C568       Br569   1.922       .  S
C573        C574   1.416       .  A
C573        C578   1.404       .  A
C573        H580   1.084       .  S
C574        C575   1.418       .  A
C575        C576   1.402       .  A
C575       Br776   1.922       .  S
C576        C577   1.402       .  A
C576        H581   1.089       .  S
C577        C578   1.402       .  A
C578       Br579   1.917       .  S
Br582       C769   1.922       .  S
N583        C587   1.365       .  A
N583        C584   1.364       .  A
N583        C751   1.445       .  S
C584        C585   1.381       .  A
C584        C761   1.493       .  S
C585        C586   1.363       .  A
C585        H588   1.078       .  S
C586        C587   1.376       .  A
C586        H589   1.080       .  S
C587        C771   1.484       .  S
Zn590       O594   1.925       .  S
Zn590       O595   2.087       .  S
Zn590       O599   2.046       .  S
Zn591       O594   1.906       .  S
Zn591      O1372   2.061       .  S
Zn591       O598   1.981       .  S
Zn592      O1370   1.897   1_545  S
Zn592       O597   1.999       .  S
Zn592       O600   2.018   1_545  S
Zn593      O1377   1.973       .  S
Zn593       O605   2.018       .  S
O594      Zn1368   1.900   1_565  S
O595        C607   1.286       .  A
O596      Zn1367   2.069       .  S
O596        C608   1.280       .  A
O597       C1385   1.277   1_445  A
O598        C607   1.271       .  A
O599        C609   1.283       .  A
O600        C608   1.274       .  A
O601      Zn1369   1.995   1_455  S
O601        C610   1.270       .  A
O602        C611   1.280       .  A
O603        C610   1.279       .  A
O605        C612   1.275       .  A
O606        C612   1.276       .  A
C607        C708   1.486       .  S
C608        C768   1.505       .  S
C609        C728   1.466   1_565  S
C609       O1373   1.277   1_565  A
C610        C718   1.472       .  S
C611        C738   1.465       .  S
C612        C758   1.492       .  S
N613        C617   1.364   1_554  A
N613        C614   1.363   1_554  A
C614        C615   1.376       .  A
C614        C721   1.477       .  S
C615        C616   1.361       .  A
C615        H618   1.079       .  S
C616        C617   1.378       .  A
C616        H619   1.077       .  S
C617        C711   1.486   1_556  S
N620       C1397   1.365       .  A
N620       C1129   1.440       .  S
C621       N1396   1.362       .  A
C621        C622   1.375       .  A
C621        C688   1.481       .  S
C622       C1011   1.358       .  A
C622        H625   1.076       .  S
C623       C1010   1.358       .  A
C623        C624   1.376   1_545  A
C623        H626   1.077       .  S
C624        C678   1.487       .  S
Zn627       O631   1.915       .  S
Zn627       O632   2.091       .  S
Zn627       O636   2.046       .  S
Zn627       O643   2.061       .  S
Zn628       O631   1.909       .  S
Zn628       O633   2.017       .  S
Zn628       O635   1.993       .  S
Zn628       O639   2.059       .  S
Zn629       O631   1.908       .  S
Zn629       O634   2.041       .  S
Zn629       O637   2.035       .  S
Zn629       O640   1.995       .  S
Zn630       O631   1.900       .  S
Zn630       O638   2.029       .  S
Zn630       O641   1.982       .  S
Zn630       O642   2.028       .  S
O632        C644   1.286       .  A
O633        C645   1.278       .  A
O634        C646   1.281       .  A
O635        C644   1.271       .  A
O636        C646   1.278       .  A
O637        C645   1.282       .  A
O638        C647   1.278       .  A
O639        C648   1.280       .  A
O640        C647   1.269       .  A
O641        C648   1.267       .  A
O642        C649   1.279       .  A
O643        C649   1.284       .  A
C644        C691   1.497       .  S
C645        C701   1.472       .  S
C646        C658   1.488       .  S
C647        C681   1.473       .  S
C648        C671   1.491       .  S
C649        C748   1.481       .  S
N650       C1427   1.358       .  A
N650        C731   1.439       .  S
C651       N1426   1.361       .  A
C651        C652   1.371       .  A
C651        C668   1.475   1_545  S
C652       C1041   1.360       .  A
C652        H655   1.079       .  S
C653       C1040   1.359       .  A
C653        C654   1.387       .  A
C653        H656   1.081       .  S
C654        C661   1.499   1_655  S
C657        C658   1.404       .  A
C657        C662   1.402       .  A
C657        H664   1.084       .  S
C658        C659   1.409       .  A
C659        C660   1.409       .  A
C659       Br666   1.919       .  S
C660        C661   1.406       .  A
C660        H665   1.074       .  S
C661        C662   1.413       .  A
C662      Br1439   1.921   1_455  S
Br663      C1438   1.922       .  S
C667        C668   1.398       .  A
C667        C672   1.399       .  A
C667        H674   1.084       .  S
C668        C669   1.406       .  A
C669        C670   1.401       .  A
C669       Br676   1.910       .  S
C670        C671   1.405       .  A
C670        H675   1.083       .  S
C671        C672   1.423       .  A
C672       Br673   1.925       .  S
C677        C678   1.406       .  A
C677        C682   1.390       .  A
C677        H684   1.084       .  S
C678        C679   1.413       .  A
C679        C680   1.406       .  A
C679      Br1462   1.916   1_455  S
C680        C681   1.405       .  A
C680        H685   1.083       .  S
C681        C682   1.406       .  A
C682       Br683   1.922       .  S
Br686      C1455   1.914       .  S
C687        C688   1.401       .  A
C687        C692   1.401       .  A
C687        H694   1.084       .  S
C688        C689   1.411       .  A
C689        C690   1.406       .  A
C690        C691   1.406       .  A
C690        H695   1.083       .  S
C691        C692   1.421       .  A
C692       Br693   1.924       .  S
C697        C698   1.406       .  A
C697        C702   1.405       .  A
C697        H704   1.083       .  S
C698        C699   1.414       .  A
C699        C700   1.395       .  A
C699       Br706   1.920       .  S
C700        C701   1.399       .  A
C700        H705   1.084       .  S
C701        C702   1.408       .  A
C702       Br703   1.917       .  S
C707        C708   1.405       .  A
C707        C712   1.406       .  A
C707        H714   1.083       .  S
C708        C709   1.415       .  A
C709        C710   1.397       .  A
C709       Br716   1.923       .  S
C710        C711   1.404   1_556  A
C710        H715   1.084   1_556  S
C711        C712   1.412   1_554  A
C712       Br713   1.914   1_556  S
C717        C718   1.406   1_554  A
C717        C722   1.404       .  A
C717        H724   1.084       .  S
C718        C719   1.401       .  A
C719        C720   1.395       .  A
C719       Br726   1.919       .  S
C720        C721   1.407       .  A
C720        H725   1.080       .  S
C721        C722   1.406   1_556  A
C722       Br723   1.916       .  S
C727       C1504   1.402   1_465  A
C727        C732   1.403       .  A
C727        H734   1.083       .  S
C728       C1503   1.403   1_545  A
C729        C730   1.396       .  A
C729       Br736   1.918       .  S
C730       C1119   1.408       .  A
C730        H735   1.083       .  S
C731       C1118   1.404       .  A
C731        C732   1.409   1_645  A
C732       Br733   1.909       .  S
C737       C1126   1.397   1_455  A
C737        C742   1.395       .  A
C737        H744   1.084       .  S
C738       C1125   1.399   1_565  A
C738        C739   1.406       .  A
C739        C740   1.401       .  A
C739       Br746   1.919       .  S
C740        C741   1.401   1_565  A
C740        H745   1.079       .  S
C741       N1008   1.437       .  S
C741       C1130   1.411       .  A
C742       C1129   1.411   1_455  A
C742       Br743   1.918       .  S
C747        C748   1.407       .  A
C747        C752   1.409       .  A
C747        H754   1.083       .  S
C748        C749   1.408       .  A
C749        C750   1.399       .  A
C749       Br756   1.920       .  S
C750        C751   1.406       .  A
C750        H755   1.083       .  S
C751        C752   1.406       .  A
C752       Br753   1.910       .  S
C757        C758   1.406       .  A
C757        C762   1.398       .  A
C757        H764   1.084       .  S
C758        C759   1.414       .  A
C759        C760   1.410       .  A
C759       Br766   1.919       .  S
C760        C761   1.407       .  A
C760        H765   1.082       .  S
C761        C762   1.412       .  A
C762       Br763   1.922       .  S
C767        C768   1.416       .  A
C767        C772   1.405       .  A
C767        H774   1.083       .  S
C768        C769   1.418       .  A
C769        C770   1.404       .  A
C770        C771   1.405       .  A
C770        H775   1.081       .  S
C771        C772   1.402       .  A
C772       Br773   1.917       .  S
N777        C781   1.367       .  A
N777        C778   1.367       .  A
N777        C945   1.446       .  S
C778        C779   1.381       .  A
C778        C955   1.496       .  S
C779        C780   1.360       .  A
C779        H782   1.080       .  S
C780        C781   1.374       .  A
C780        H783   1.080       .  S
C781        C965   1.483       .  S
Zn784       O788   1.927   1_655  S
Zn784       O789   2.073       .  S
Zn784       O793   2.045       .  S
Zn784      O1188   2.040       .  S
Zn785       O788   1.903       .  S
Zn785       O792   1.976   1_455  S
Zn785       O990   2.033       .  S
Zn786       O791   2.021       .  S
Zn786       O794   2.028       .  S
Zn786      O1185   2.057       .  S
Zn787      O1176   1.897   1_645  S
Zn787       O992   2.006       .  S
Zn787       O799   2.032       .  S
O788      Zn1175   1.899   1_455  S
O789        C801   1.283       .  A
O790        C802   1.279       .  A
O792        C801   1.270       .  A
O793        C803   1.283       .  A
O794        C802   1.276       .  A
O795        C804   1.268       .  A
O796       Zn979   2.044   1_554  S
O796        C805   1.280       .  A
O797      Zn1174   2.027       .  S
O797        C804   1.276       .  A
O798       Zn981   2.005   1_554  S
O798       C1193   1.276   1_545  A
O799        C806   1.278       .  A
O800      Zn1172   2.058   1_545  S
O800        C806   1.277       .  A
C801        C902   1.483       .  S
C802        C962   1.505       .  S
C803        C922   1.472       .  S
C804        C912   1.465       .  S
C805        C932   1.470   1_455  S
C805       O1186   1.276   1_455  A
C806        C952   1.492       .  S
N807        C811   1.362       .  A
N807        C808   1.360       .  A
N807       C1086   1.443       .  S
C808        C809   1.374       .  A
C808        C915   1.470       .  S
C809        C810   1.356       .  A
C809        H812   1.078       .  S
C810        C811   1.379       .  A
C810        H813   1.079       .  S
C811        C905   1.479       .  S
N814       C1206   1.366   1_545  A
C815        C816   1.372   1_655  A
C815        C882   1.489       .  S
C816        H819   1.074       .  S
C817        C818   1.378       .  A
C817        H820   1.079       .  S
C818       N1202   1.364       .  A
C818        C872   1.484       .  S
Zn821       O825   1.915       .  S
Zn821       O826   2.106       .  S
Zn821       O830   2.043       .  S
Zn821       O837   2.049       .  S
Zn822       O825   1.902       .  S
Zn822       O827   2.023       .  S
Zn822       O829   1.995       .  S
Zn822       O833   2.062       .  S
Zn823       O825   1.908       .  S
Zn823       O828   2.047       .  S
Zn823       O831   2.051       .  S
Zn823       O834   1.987       .  S
Zn824       O825   1.908       .  S
Zn824       O832   2.038       .  S
Zn824       O835   1.999       .  S
Zn824       O836   2.033       .  S
O826        C838   1.288       .  A
O827        C839   1.281       .  A
O828        C840   1.281       .  A
O829        C838   1.271       .  A
O830        C840   1.277       .  A
O831        C839   1.284       .  A
O832        C841   1.279       .  A
O833        C842   1.282       .  A
O834        C841   1.269       .  A
O835        C842   1.269       .  A
O836        C843   1.280       .  A
O837        C843   1.284       .  A
C838        C885   1.504       .  S
C839        C895   1.485       .  S
C840        C852   1.494       .  S
C841        C875   1.471       .  S
C842        C865   1.498       .  S
C843        C942   1.480       .  S
N844       C1236   1.368       .  A
N844        C925   1.443       .  S
C845        C846   1.373       .  A
C845        C862   1.480       .  S
C846        H849   1.080       .  S
C847        C848   1.387       .  A
C847        H850   1.080       .  S
C848       N1232   1.365       .  A
C848        C855   1.498       .  S
C851        C852   1.406       .  A
C851        C856   1.401       .  A
C851        H858   1.084       .  S
C852        C853   1.414       .  A
C853        C854   1.411       .  A
C853       Br860   1.918       .  S
C854        C855   1.407       .  A
C854        H859   1.082       .  S
C855        C856   1.413       .  A
C861        C862   1.399       .  A
C861        C866   1.405       .  A
C861        H868   1.084       .  S
C862        C863   1.407       .  A
C863        C864   1.398       .  A
C863       Br870   1.907       .  S
C864        C865   1.405       .  A
C864        H869   1.083       .  S
C865        C866   1.425       .  A
C866       Br867   1.923       .  S
C871        C872   1.407       .  A
C871        C876   1.395       .  A
C871        H878   1.084       .  S
C872        C873   1.415       .  A
C873        C874   1.402       .  A
C874        C875   1.402       .  A
C874        H879   1.084       .  S
C875        C876   1.406       .  A
C876       Br877   1.921       .  S
C881        C882   1.403       .  A
C881        C886   1.404       .  A
C881        H888   1.084       .  S
C882        C883   1.414       .  A
C883        C884   1.408       .  A
C883      Br1278   1.915   1_545  S
C884        C885   1.406       .  A
C884        H889   1.083       .  S
C885        C886   1.423       .  A
C886       Br887   1.925       .  S
Br890      C1271   1.914       .  S
C891        C892   1.412       .  A
C891        C896   1.408       .  A
C891        H898   1.082       .  S
C892       N1001   1.454       .  S
C892        C893   1.420       .  A
C893        C894   1.397       .  A
C893       Br900   1.920       .  S
C894        C895   1.400       .  A
C894        H899   1.084       .  S
C895        C896   1.409       .  A
C896       Br897   1.917       .  S
C901        C902   1.406       .  A
C901        C906   1.406       .  A
C901        H908   1.083       .  S
C902        C903   1.414       .  A
C903        C904   1.394       .  A
C903       Br910   1.923       .  S
C904        C905   1.402       .  A
C904        H909   1.084       .  S
C905        C906   1.411       .  A
C906       Br907   1.917       .  S
C911        C912   1.398       .  A
C911        C916   1.393       .  A
C911        H918   1.084       .  S
C912        C913   1.406       .  A
C913        C914   1.403       .  A
C913       Br920   1.915       .  S
C914        C915   1.404       .  A
C914        H919   1.082       .  S
C915        C916   1.409       .  A
C916       Br917   1.921       .  S
C921        C926   1.404       .  A
C921        H928   1.083       .  S
C922       C1311   1.406       .  A
C923       C1310   1.406       .  A
C923        C924   1.393       .  A
C923       Br930   1.920       .  S
C924        H929   1.083       .  S
C925        C926   1.411       .  A
C926       Br927   1.907       .  S
C931        C936   1.397       .  A
C931        H938   1.084       .  S
C932        C933   1.409       .  A
C933        C934   1.402       .  A
C933       Br940   1.918       .  S
C934        C935   1.402       .  A
C934        H939   1.080       .  S
C936       Br937   1.920       .  S
C941        C942   1.409       .  A
C941        C946   1.410       .  A
C941        H948   1.083       .  S
C942        C943   1.406       .  A
C943        C944   1.395       .  A
C943       Br950   1.921       .  S
C944        C945   1.407       .  A
C944        H949   1.083       .  S
C945        C946   1.409       .  A
C946       Br947   1.915       .  S
C951        C952   1.404       .  A
C951        C956   1.398       .  A
C951        H958   1.084       .  S
C952        C953   1.414       .  A
C953        C954   1.413       .  A
C953       Br960   1.918       .  S
C954        C955   1.408       .  A
C954        H959   1.083       .  S
C955        C956   1.412       .  A
C956       Br957   1.921       .  S
C961        C962   1.414       .  A
C961        C966   1.405       .  A
C961        H968   1.083       .  S
C962        C963   1.419       .  A
C963        C964   1.404       .  A
C963      Br1164   1.921       .  S
C964        C965   1.405       .  A
C964        H969   1.084       .  S
C965        C966   1.404       .  A
C966       Br967   1.917       .  S
Br970      C1157   1.919       .  S
N971        C975   1.372       .  A
N971        C972   1.369       .  A
N971       C1139   1.458       .  S
C972        C973   1.375       .  A
C972       C1149   1.490       .  S
C973        C974   1.357       .  A
C973        H976   1.076       .  S
C974        C975   1.375       .  A
C974        H977   1.081       .  S
C975       C1159   1.481       .  S
Zn978       O982   1.939       .  S
Zn978       O983   2.091       .  S
Zn978       O987   2.044       .  S
Zn978      O1382   2.045       .  S
Zn979       O982   1.908   1_455  S
Zn979       O986   1.982   1_455  S
Zn980       O985   2.001       .  S
Zn980       O988   2.002       .  S
Zn980      O1379   2.045       .  S
Zn981      O1370   1.895   1_645  S
Zn981       O993   2.021       .  S
O982      Zn1369   1.896       .  S
O983        C995   1.285       .  A
O984        C996   1.281       .  A
O986        C995   1.271       .  A
O987        C997   1.282       .  A
O988        C996   1.272       .  A
O989        C998   1.269       .  A
O990        C999   1.280   1_455  A
O991      Zn1368   2.039       .  S
O991        C998   1.279       .  A
O992       C1387   1.277   1_645  A
O993       C1000   1.276       .  A
O994      Zn1366   2.048   1_545  S
O994       C1000   1.275       .  A
C995       C1096   1.488       .  S
C996       C1156   1.504       .  S
C997       C1116   1.470       .  S
C998       C1106   1.470       .  S
C999       C1126   1.469       .  S
C999       O1380   1.277       .  A
C1000      C1146   1.487       .  S
N1001      C1005   1.365       .  A
N1001      C1002   1.363       .  A
C1002      C1003   1.377   1_554  A
C1002      C1109   1.474   1_554  S
C1003      C1004   1.360       .  A
C1003      H1006   1.080       .  S
C1004      C1005   1.382   1_556  A
C1004      H1007   1.079       .  S
C1005      C1099   1.493       .  S
N1008      C1400   1.362   1_545  A
C1009      C1010   1.375   1_655  A
C1009      C1076   1.484       .  S
C1010      H1013   1.076       .  S
C1011      C1012   1.375       .  A
C1011      H1014   1.077       .  S
C1012      N1396   1.363       .  A
C1012      C1066   1.484       .  S
Zn1015     O1019   1.929       .  S
Zn1015     O1020   2.095       .  S
Zn1015     O1024   2.046       .  S
Zn1015     O1031   2.053       .  S
Zn1016     O1019   1.910       .  S
Zn1016     O1021   2.028       .  S
Zn1016     O1023   1.993       .  S
Zn1016     O1027   2.063       .  S
Zn1017     O1019   1.912       .  S
Zn1017     O1022   2.040       .  S
Zn1017     O1025   2.039       .  S
Zn1017     O1028   1.998       .  S
Zn1018     O1019   1.907       .  S
Zn1018     O1026   2.041       .  S
Zn1018     O1029   2.001       .  S
Zn1018     O1030   2.030       .  S
O1020      C1032   1.286       .  A
O1021      C1033   1.279       .  A
O1022      C1034   1.280       .  A
O1023      C1032   1.271       .  A
O1024      C1034   1.277       .  A
O1025      C1033   1.282       .  A
O1026      C1035   1.279       .  A
O1027      C1036   1.281       .  A
O1028      C1035   1.269       .  A
O1029      C1036   1.270       .  A
O1030      C1037   1.280       .  A
O1031      C1037   1.283       .  A
C1032      C1079   1.499       .  S
C1033      C1089   1.475       .  S
C1034      C1046   1.489       .  S
C1035      C1069   1.475       .  S
C1036      C1059   1.493       .  S
C1037      C1136   1.486       .  S
N1038      C1430   1.371       .  A
N1038      C1119   1.445       .  S
C1039      C1040   1.372       .  A
C1039      C1056   1.481       .  S
C1040      H1043   1.079       .  S
C1041      C1042   1.387       .  A
C1041      H1044   1.081       .  S
C1042      N1426   1.366       .  A
C1042      C1049   1.496       .  S
C1045      C1046   1.404       .  A
C1045      C1050   1.398       .  A
C1045      H1052   1.084       .  S
C1046      C1047   1.412       .  A
C1047      C1048   1.413       .  A
C1047     Br1054   1.919       .  S
C1048      C1049   1.409       .  A
C1048      H1053   1.081       .  S
C1049      C1050   1.411       .  A
C1055      C1056   1.401       .  A
C1055      C1060   1.401       .  A
C1055      H1062   1.084       .  S
C1056      C1057   1.407       .  A
C1057      C1058   1.403       .  A
C1057     Br1064   1.910       .  S
C1058      C1059   1.406       .  A
C1058      H1063   1.083       .  S
C1059      C1060   1.420       .  A
C1060     Br1061   1.923       .  S
C1065      C1066   1.405       .  A
C1065      C1070   1.392       .  A
C1065      H1072   1.084       .  S
C1066      C1067   1.412       .  A
C1067      C1068   1.407       .  A
C1068      C1069   1.406       .  A
C1068      H1073   1.083       .  S
C1069      C1070   1.406       .  A
C1070     Br1071   1.921       .  S
C1075      C1076   1.401       .  A
C1075      C1080   1.401       .  A
C1075      H1082   1.084       .  S
C1076      C1077   1.414       .  A
C1077      C1078   1.407       .  A
C1077     Br1472   1.919   1_545  S
C1078      C1079   1.406       .  A
C1078      H1083   1.083       .  S
C1079      C1080   1.421       .  A
C1080     Br1081   1.924       .  S
Br1084     C1465   1.917       .  S
C1085      C1086   1.406       .  A
C1085      C1090   1.408       .  A
C1085      H1092   1.082       .  S
C1086      C1087   1.412       .  A
C1087      C1088   1.396       .  A
C1087     Br1094   1.919       .  S
C1088      C1089   1.399       .  A
C1088      H1093   1.084       .  S
C1089      C1090   1.409       .  A
C1090     Br1091   1.917       .  S
C1095      C1096   1.408       .  A
C1095      C1100   1.412       .  A
C1095      H1102   1.083       .  S
C1096      C1097   1.413       .  A
C1097      C1098   1.392       .  A
C1097     Br1104   1.924       .  S
C1098      C1099   1.404   1_556  A
C1098      H1103   1.084       .  S
C1099      C1100   1.415   1_554  A
C1100     Br1101   1.918       .  S
C1105      C1106   1.407   1_554  A
C1105      C1110   1.401       .  A
C1105      H1112   1.084       .  S
C1106      C1107   1.402       .  A
C1107      C1108   1.396       .  A
C1107     Br1114   1.913       .  S
C1108      C1109   1.406       .  A
C1108      H1113   1.083       .  S
C1109      C1110   1.404   1_556  A
C1110     Br1111   1.917       .  S
C1115      C1120   1.402       .  A
C1115      H1122   1.084       .  S
C1116      C1505   1.404       .  A
C1117      C1504   1.405       .  A
C1117      C1118   1.393       .  A
C1117     Br1124   1.917       .  S
C1118      H1123   1.083       .  S
C1119      C1120   1.412       .  A
C1120     Br1121   1.910       .  S
C1125      C1130   1.397       .  A
C1125      H1132   1.084       .  S
C1126      C1127   1.409       .  A
C1127      C1128   1.405       .  A
C1127     Br1134   1.919       .  S
C1128      C1129   1.404       .  A
C1128      H1133   1.080       .  S
C1130     Br1131   1.919       .  S
C1135      C1136   1.404       .  A
C1135      C1140   1.405       .  A
C1135      H1142   1.084       .  S
C1136      C1137   1.408       .  A
C1137      C1138   1.401       .  A
C1137     Br1144   1.921       .  S
C1138      C1139   1.412       .  A
C1138      H1143   1.082       .  S
C1139      C1140   1.415       .  A
C1140     Br1141   1.906       .  S
C1145      C1146   1.403       .  A
C1145      C1150   1.395       .  A
C1145      H1152   1.084       .  S
C1146      C1147   1.414       .  A
C1147      C1148   1.411       .  A
C1147     Br1154   1.917       .  S
C1148      C1149   1.406       .  A
C1148      H1153   1.083       .  S
C1149      C1150   1.412       .  A
C1150     Br1151   1.922       .  S
C1155      C1156   1.415       .  A
C1155      C1160   1.403       .  A
C1155      H1162   1.083       .  S
C1156      C1157   1.417       .  A
C1157      C1158   1.405       .  A
C1158      C1159   1.407       .  A
C1158      H1163   1.082       .  S
C1159      C1160   1.402       .  A
C1160     Br1161   1.918       .  S
N1165      C1169   1.367       .  A
N1165      C1166   1.365       .  A
N1165      C1333   1.449       .  S
C1166      C1167   1.376       .  A
C1166      C1343   1.488       .  S
C1167      C1168   1.359       .  A
C1167      H1170   1.075       .  S
C1168      C1169   1.374       .  A
C1168      H1171   1.081       .  S
C1169      C1353   1.477       .  S
Zn1172     O1176   1.927   1_655  S
Zn1172     O1177   2.095       .  S
Zn1172     O1181   2.044       .  S
Zn1173     O1176   1.900       .  S
Zn1173     O1180   1.979   1_455  S
Zn1173     O1378   2.028       .  S
Zn1174     O1179   2.000       .  S
Zn1174     O1182   1.993   1_545  S
Zn1175     O1380   2.019       .  S
Zn1175     O1187   2.030       .  S
O1177      C1189   1.286       .  A
O1178      C1190   1.280       .  A
O1180      C1189   1.270       .  A
O1181      C1191   1.283       .  A
O1182      C1190   1.271       .  A
O1183      C1192   1.271       .  A
O1184     Zn1367   2.036   1_554  S
O1184      C1193   1.282   1_455  A
O1185      C1192   1.280       .  A
O1186     Zn1369   2.007   1_554  S
O1187      C1194   1.278       .  A
O1188      C1194   1.274       .  A
C1189      C1290   1.486       .  S
C1190      C1350   1.498       .  S
C1191      C1310   1.468   1_565  S
C1192      C1300   1.479       .  S
C1193      C1320   1.474       .  S
C1194      C1340   1.486       .  S
N1195      C1199   1.365       .  A
N1195      C1196   1.364       .  A
N1195      C1474   1.450       .  S
C1196      C1197   1.377       .  A
C1196      C1303   1.480       .  S
C1197      C1198   1.363       .  A
C1197      H1200   1.080       .  S
C1198      C1199   1.380       .  A
C1198      H1201   1.078       .  S
C1199      C1293   1.494       .  S
C1203      C1204   1.371   1_655  A
C1203      C1270   1.488       .  S
C1204      H1207   1.074       .  S
C1205      C1206   1.374   1_545  A
C1205      H1208   1.075       .  S
C1206      C1260   1.490       .  S
Zn1209     O1213   1.919       .  S
Zn1209     O1214   2.109       .  S
Zn1209     O1218   2.058       .  S
Zn1209     O1225   2.050       .  S
Zn1210     O1213   1.906       .  S
Zn1210     O1215   2.023       .  S
Zn1210     O1217   1.995       .  S
Zn1210     O1221   2.059       .  S
Zn1211     O1213   1.907       .  S
Zn1211     O1216   2.057       .  S
Zn1211     O1219   2.047       .  S
Zn1211     O1222   1.988       .  S
Zn1212     O1213   1.910       .  S
Zn1212     O1220   2.038       .  S
Zn1212     O1223   1.988       .  S
Zn1212     O1224   2.027       .  S
O1214      C1226   1.288       .  A
O1215      C1227   1.279       .  A
O1216      C1228   1.283       .  A
O1217      C1226   1.271       .  A
O1218      C1228   1.279       .  A
O1219      C1227   1.284       .  A
O1220      C1229   1.278       .  A
O1221      C1230   1.281       .  A
O1222      C1229   1.269       .  A
O1223      C1230   1.267       .  A
O1224      C1231   1.280       .  A
O1225      C1231   1.283       .  A
C1226      C1273   1.505       .  S
C1227      C1283   1.477       .  S
C1228      C1240   1.501       .  S
C1229      C1263   1.475       .  S
C1230      C1253   1.495       .  S
C1231      C1330   1.480       .  S
N1232      C1313   1.437       .  S
C1233      C1234   1.374       .  A
C1233      C1250   1.475   1_545  S
C1234      H1237   1.080       .  S
C1235      C1236   1.385       .  A
C1235      H1238   1.079       .  S
C1236      C1243   1.502       .  S
C1239      C1240   1.406       .  A
C1239      C1244   1.403       .  A
C1239      H1246   1.084       .  S
C1240      C1241   1.416       .  A
C1241      C1242   1.413       .  A
C1241     Br1248   1.919       .  S
C1242      C1243   1.408       .  A
C1242      H1247   1.083       .  S
C1243      C1244   1.415       .  A
C1249      C1250   1.397       .  A
C1249      C1254   1.403       .  A
C1249      H1256   1.084       .  S
C1250      C1251   1.407       .  A
C1251      C1252   1.397       .  A
C1251     Br1258   1.912       .  S
C1252      C1253   1.405       .  A
C1252      H1257   1.083       .  S
C1253      C1254   1.426       .  A
C1254     Br1255   1.924       .  S
C1259      C1260   1.409       .  A
C1259      C1264   1.394       .  A
C1259      H1266   1.084       .  S
C1260      C1261   1.413       .  A
C1261      C1262   1.403       .  A
C1262      C1263   1.404       .  A
C1262      H1267   1.084       .  S
C1263      C1264   1.407       .  A
C1264     Br1265   1.923       .  S
C1269      C1270   1.402       .  A
C1269      C1274   1.403       .  A
C1269      H1276   1.084       .  S
C1270      C1271   1.413       .  A
C1271      C1272   1.410       .  A
C1272      C1273   1.407       .  A
C1272      H1277   1.083       .  S
C1273      C1274   1.424       .  A
C1274     Br1275   1.925       .  S
C1279      C1280   1.407       .  A
C1279      C1284   1.409       .  A
C1279      H1286   1.083       .  S
C1280      N1389   1.444       .  S
C1280      C1281   1.413       .  A
C1281      C1282   1.396       .  A
C1281     Br1288   1.919       .  S
C1282      C1283   1.399       .  A
C1282      H1287   1.084       .  S
C1283      C1284   1.410       .  A
C1284     Br1285   1.917       .  S
C1289      C1290   1.406       .  A
C1289      C1294   1.411       .  A
C1289      H1296   1.083       .  S
C1290      C1291   1.412       .  A
C1291      C1292   1.395       .  A
C1291     Br1298   1.923       .  S
C1292      C1293   1.406       .  A
C1292      H1297   1.084       .  S
C1293      C1294   1.415       .  A
C1294     Br1295   1.918       .  S
C1299      C1300   1.408       .  A
C1299      C1304   1.406       .  A
C1299      H1306   1.083       .  S
C1300      C1301   1.403       .  A
C1301      C1302   1.399       .  A
C1301     Br1308   1.915       .  S
C1302      C1303   1.405       .  A
C1302      H1307   1.081       .  S
C1303      C1304   1.406       .  A
C1304     Br1305   1.916       .  S
C1309      C1314   1.404       .  A
C1309      H1316   1.083       .  S
C1311      C1312   1.394       .  A
C1311     Br1318   1.916       .  S
C1312      H1317   1.083       .  S
C1313      C1314   1.408   1_545  A
C1314     Br1315   1.911       .  S
C1319      C1324   1.397       .  A
C1319      H1326   1.084       .  S
C1320      C1321   1.410       .  A
C1321      C1322   1.401       .  A
C1321     Br1328   1.920       .  S
C1322      C1323   1.404   1_665  A
C1322      H1327   1.077       .  S
C1324     Br1325   1.919       .  S
C1329      C1330   1.404       .  A
C1329      C1334   1.405       .  A
C1329      H1336   1.084       .  S
C1330      C1331   1.408       .  A
C1331      C1332   1.399       .  A
C1331     Br1338   1.921       .  S
C1332      C1333   1.408       .  A
C1332      H1337   1.083       .  S
C1333      C1334   1.411       .  A
C1334     Br1335   1.907       .  S
C1339      C1340   1.402       .  A
C1339      C1344   1.395       .  A
C1339      H1346   1.084       .  S
C1340      C1341   1.414       .  A
C1341      C1342   1.412       .  A
C1341     Br1348   1.918       .  S
C1342      C1343   1.407       .  A
C1342      H1347   1.083       .  S
C1343      C1344   1.411       .  A
C1344     Br1345   1.921       .  S
C1349      C1350   1.415       .  A
C1349      C1354   1.402       .  A
C1349      H1356   1.083       .  S
C1350      C1351   1.415       .  A
C1351      C1352   1.400       .  A
C1351     Br1552   1.918       .  S
C1352      C1353   1.403       .  A
C1352      H1357   1.081       .  S
C1353      C1354   1.402       .  A
C1354     Br1355   1.918       .  S
Br1358     C1545   1.921       .  S
N1359      C1363   1.366       .  A
N1359      C1360   1.365       .  A
N1359      C1527   1.447       .  S
C1360      C1361   1.379       .  A
C1360      C1537   1.490       .  S
C1361      C1362   1.361       .  A
C1361      H1364   1.078       .  S
C1362      C1363   1.375       .  A
C1362      H1365   1.080       .  S
C1363      C1547   1.481       .  S
Zn1366     O1370   1.925   1_655  S
Zn1366     O1371   2.082       .  S
Zn1366     O1375   2.050       .  S
Zn1367     O1370   1.905       .  S
Zn1367     O1374   1.975   1_455  S
Zn1368     O1373   2.001       .  S
Zn1368     O1376   2.013   1_545  S
Zn1369     O1381   2.020       .  S
O1371      C1383   1.285       .  A
O1372      C1384   1.279       .  A
O1374      C1383   1.270       .  A
O1375      C1385   1.284       .  A
O1376      C1384   1.273       .  A
O1377      C1386   1.267       .  A
O1378      C1387   1.281       .  A
O1379      C1386   1.278       .  A
O1381      C1388   1.276       .  A
O1382      C1388   1.275       .  A
C1383      C1484   1.484       .  S
C1384      C1544   1.503       .  S
C1385      C1504   1.467   1_565  S
C1386      C1494   1.463       .  S
C1387      C1514   1.471       .  S
C1388      C1534   1.489       .  S
N1389      C1393   1.362   1_554  A
N1389      C1390   1.358   1_554  A
C1390      C1391   1.372       .  A
C1390      C1497   1.466       .  S
C1391      C1392   1.360       .  A
C1391      H1394   1.079       .  S
C1392      C1393   1.380       .  A
C1392      H1395   1.078       .  S
C1393      C1487   1.482   1_556  S
C1397      C1398   1.375   1_655  A
C1397      C1464   1.483       .  S
C1398      H1401   1.076       .  S
C1399      C1400   1.373   1_545  A
C1399      H1402   1.076       .  S
C1400      C1454   1.481       .  S
Zn1403     O1407   1.915       .  S
Zn1403     O1408   2.088       .  S
Zn1403     O1412   2.035       .  S
Zn1403     O1419   2.048       .  S
Zn1404     O1407   1.906       .  S
Zn1404     O1409   2.026       .  S
Zn1404     O1411   1.995       .  S
Zn1404     O1415   2.060       .  S
Zn1405     O1407   1.905       .  S
Zn1405     O1410   2.039       .  S
Zn1405     O1413   2.036       .  S
Zn1405     O1416   1.980       .  S
Zn1406     O1407   1.905       .  S
Zn1406     O1414   2.049       .  S
Zn1406     O1417   1.989       .  S
Zn1406     O1418   2.039       .  S
O1408      C1420   1.285       .  A
O1409      C1421   1.281       .  A
O1410      C1422   1.280       .  A
O1411      C1420   1.271       .  A
O1412      C1422   1.276       .  A
O1413      C1421   1.282       .  A
O1414      C1423   1.280       .  A
O1415      C1424   1.281       .  A
O1416      C1423   1.268       .  A
O1417      C1424   1.268       .  A
O1418      C1425   1.281       .  A
O1419      C1425   1.283       .  A
C1420      C1467   1.495       .  S
C1421      C1477   1.480       .  S
C1422      C1434   1.486       .  S
C1423      C1457   1.472       .  S
C1424      C1447   1.494       .  S
C1425      C1524   1.482       .  S
N1426      C1507   1.440       .  S
C1427      C1428   1.371       .  A
C1427      C1444   1.473   1_545  S
C1428      H1431   1.079       .  S
C1429      C1430   1.387       .  A
C1429      H1432   1.082       .  S
C1430      C1437   1.498       .  S
C1433      C1434   1.404       .  A
C1433      C1438   1.401       .  A
C1433      H1440   1.084       .  S
C1434      C1435   1.409       .  A
C1435      C1436   1.407       .  A
C1435     Br1442   1.919       .  S
C1436      C1437   1.406       .  A
C1436      H1441   1.074       .  S
C1437      C1438   1.414       .  A
C1443      C1444   1.396       .  A
C1443      C1448   1.401       .  A
C1443      H1450   1.084       .  S
C1444      C1445   1.406       .  A
C1445      C1446   1.399       .  A
C1445     Br1452   1.911       .  S
C1446      C1447   1.406       .  A
C1446      H1451   1.083       .  S
C1447      C1448   1.425       .  A
C1448     Br1449   1.924       .  S
C1453      C1454   1.408       .  A
C1453      C1458   1.396       .  A
C1453      H1460   1.084       .  S
C1454      C1455   1.412       .  A
C1455      C1456   1.401       .  A
C1456      C1457   1.403       .  A
C1456      H1461   1.084       .  S
C1457      C1458   1.406       .  A
C1458     Br1459   1.921       .  S
C1463      C1464   1.403       .  A
C1463      C1468   1.401       .  A
C1463      H1470   1.084       .  S
C1464      C1465   1.411       .  A
C1465      C1466   1.407       .  A
C1466      C1467   1.406       .  A
C1466      H1471   1.083       .  S
C1467      C1468   1.418       .  A
C1468     Br1469   1.923       .  S
C1473      C1474   1.409       .  A
C1473      C1478   1.407       .  A
C1473      H1480   1.082       .  S
C1474      C1475   1.419       .  A
C1475      C1476   1.396       .  A
C1475     Br1482   1.920       .  S
C1476      C1477   1.399       .  A
C1476      H1481   1.084       .  S
C1477      C1478   1.409       .  A
C1478     Br1479   1.917       .  S
C1483      C1484   1.406       .  A
C1483      C1488   1.406       .  A
C1483      H1490   1.083       .  S
C1484      C1485   1.415       .  A
C1485      C1486   1.396   1_556  A
C1485     Br1492   1.924       .  S
C1486      C1487   1.403       .  A
C1486      H1491   1.084       .  S
C1487      C1488   1.411   1_554  A
C1488     Br1489   1.917       .  S
C1493      C1494   1.402       .  A
C1493      C1498   1.397   1_556  A
C1493      H1500   1.084   1_556  S
C1494      C1495   1.404       .  A
C1495      C1496   1.399       .  A
C1495     Br1502   1.919       .  S
C1496      C1497   1.404       .  A
C1496      H1501   1.081       .  S
C1497      C1498   1.405   1_556  A
C1498     Br1499   1.918       .  S
C1503      C1508   1.403       .  A
C1503      H1510   1.084       .  S
C1505      C1506   1.397       .  A
C1505     Br1512   1.919       .  S
C1506      H1511   1.083       .  S
C1507      C1508   1.409   1_545  A
C1508     Br1509   1.909       .  S
C1513      C1518   1.394       .  A
C1513      H1520   1.084       .  S
C1514      C1515   1.409   1_455  A
C1515      C1516   1.401       .  A
C1515     Br1522   1.919       .  S
C1516      C1517   1.404   1_665  A
C1516      H1521   1.077       .  S
C1518     Br1519   1.919       .  S
C1523      C1524   1.408       .  A
C1523      C1528   1.409       .  A
C1523      H1530   1.083       .  S
C1524      C1525   1.407       .  A
C1525      C1526   1.397       .  A
C1525     Br1532   1.921       .  S
C1526      C1527   1.408       .  A
C1526      H1531   1.083       .  S
C1527      C1528   1.409       .  A
C1528     Br1529   1.914       .  S
C1533      C1534   1.404       .  A
C1533      C1538   1.396       .  A
C1533      H1540   1.084       .  S
C1534      C1535   1.414       .  A
C1535      C1536   1.411       .  A
C1535     Br1542   1.919       .  S
C1536      C1537   1.407       .  A
C1536      H1541   1.083       .  S
C1537      C1538   1.411       .  A
C1538     Br1539   1.922       .  S
C1543      C1544   1.416       .  A
C1543      C1548   1.404       .  A
C1543      H1550   1.083       .  S
C1544      C1545   1.418       .  A
C1545      C1546   1.404       .  A
C1546      C1547   1.405       .  A
C1546      H1551   1.083       .  S
C1547      C1548   1.402       .  A
C1548     Br1549   1.918       .  S
