geometry optimzed in LAMMPS
_audit_creation_date              2020-11-30 
_audit_creation_method            'lammps2cif' 
_symmetry_space_group_name_H-M    'P1' 
_symmetry_Int_Tables_number       1 
_symmetry_cell_setting            triclinic 
loop_ 
_symmetry_equiv_pos_as_xyz 
  x,y,z 
_cell_length_a                    40.53269729748364 
_cell_length_b                    40.888853507610634 
_cell_length_c                    40.27941933212348 
_cell_angle_alpha                 84.98143852462428 
_cell_angle_beta                  85.75020160046512 
_cell_angle_gamma                 93.05523551052738 
loop_ 
_atom_site_label 
_atom_site_type_symbol 
_atom_site_fract_x 
_atom_site_fract_y 
_atom_site_fract_z 
_atom_site_charge 
C1          C  0.09981369  0.27380297  0.52529120     0.03500
C2          C  0.13261131  0.27293700  0.03470156    -0.12650
C3          C  0.14820947  0.24309772  0.03768181     0.01000
C4          C  0.13065542  0.21392725  0.03180912    -0.11180
C5          C  0.09779420  0.21437579  0.52288358     0.03490
C6          C  0.08368616  0.24464151  0.51708972    -0.10600
H7          H  0.14538111  0.29497242  0.04163240     0.09110
H8          H  0.14204680  0.19067666  0.03583765     0.06610
H9          H  0.05868440  0.24501408  0.50935063     0.06460
C10         C  0.32262374  0.19218134  0.09882823     0.03500
C11         C  0.29031732  0.19642250  0.08945863    -0.12650
C12         C  0.27923872  0.22822789  0.08305690     0.01000
C13         C  0.30051335  0.25568310  0.08684068    -0.11180
C14         C  0.33288352  0.25153028  0.09596342     0.03490
C15         C  0.34371053  0.21983189  0.10204253    -0.10600
H16         H  0.27458864  0.17515486  0.08522647     0.09080
H17         H  0.29232079  0.28025667  0.08144598     0.06610
H18         H  0.36919223  0.21667418  0.10756601     0.06460
C19         C  0.16975382  0.44575520  0.20545733     0.03500
C20         C  0.17240696  0.45733149  0.23706237    -0.12650
C21         C  0.20377559  0.46219252  0.24919427     0.01000
C22         C  0.23230566  0.45693873  0.22885759    -0.11180
C23         C  0.22990888  0.44392837  0.19781226     0.03490
C24         C  0.19831389  0.43697672  0.18726530    -0.10600
H25         H  0.15048292  0.46403790  0.25135350     0.09080
H26         H  0.25633389  0.46371177  0.23715511     0.06610
H27         H  0.19588336  0.42737336  0.16327135     0.06460
C28         C  0.25764058  0.02457693  0.42074450     0.03500
C29         C  0.25368194  0.01945210  0.38706816    -0.12650
C30         C  0.22184775  0.01423324  0.37612862     0.01000
C31         C  0.19397170  0.01532586  0.39863567    -0.11180
C32         C  0.19748207  0.02201851  0.43184696     0.03490
C33         C  0.22931269  0.02650206  0.44263589    -0.10600
H34         H  0.27522869  0.01774695  0.36985694     0.09080
H35         H  0.16955163  0.00978133  0.39052168     0.06610
H36         H  0.23198110  0.03013908  0.46865292     0.06460
C37         C  0.00232488  0.12577151  0.26717060     0.03500
C38         C  0.99561972  0.15863690  0.27128386    -0.12650
C39         C  0.99341458  0.16984021  0.30343625     0.01000
C40         C  0.99980547  0.14819879  0.33099296    -0.11180
C41         C  0.00583076  0.11521889  0.32705766     0.03490
C42         C  0.00808193  0.10449108  0.29498350    -0.10600
H43         H  0.98968140  0.17461245  0.24992052     0.09080
H44         H  0.99778815  0.15642674  0.35588141     0.06610
H45         H  0.01205186  0.07887468  0.29190269     0.06460
C46         C  0.42977332  0.34194460  0.35856496     0.03500
C47         C  0.44200729  0.31083531  0.35480326    -0.12650
C48         C  0.44739639  0.29980568  0.32273879     0.01000
C49         C  0.44043078  0.32050222  0.29464686    -0.11180
C50         C  0.42973703  0.35215579  0.29833629     0.03490
C51         C  0.42329489  0.36219073  0.33028190    -0.10600
H52         H  0.44877537  0.29598851  0.37659167     0.09080
H53         H  0.44488737  0.31266405  0.26977963     0.06610
H54         H  0.41587255  0.38697717  0.33302147     0.06460
O55         O  0.02726084  0.41472477  0.01502633    -0.79760
O56         O  0.42609971  0.46374129  0.16890468    -0.81320
O57         O  0.03054632  0.43216780  0.12933867    -0.78340
O58         O  0.44057559  0.37877336  0.09752248    -0.76720
O59         O  0.39876550  0.39318325  0.06471467    -0.78510
O60         O  0.05175579  0.48522414  0.11845530    -0.79450
O61         O  0.45582991  0.41955914  0.15644117    -0.80770
O62         O  0.01532414  0.39217438  0.06882938    -0.81060
Eu63       Eu  0.47944705  0.42801555  0.09891210     2.39200
O64         O  0.42672097  0.44929521  0.09818595    -0.88570
O65         O  0.01699019  0.46327050  0.06329763    -0.92170
C66         C  0.02947449  0.39216225  0.03905194     1.02520
C67         C  0.43766582  0.43535755  0.17633214     1.02330
C68         C  0.05247679  0.45570106  0.13231574     1.02280
C69         C  0.41349367  0.37240760  0.08343850     1.00140
H70         H  0.48775128  0.48028393  0.14031894     0.29890
O71         O  0.48062477  0.48109322  0.11792290    -1.00960
H72         H  0.46125679  0.40913236  0.03687982     0.29920
O73         O  0.46157816  0.43080486  0.04462387    -1.03500
O74         O  0.39849315  0.05410248  0.11063265    -0.80730
O75         O  0.50282070  0.50506379  0.45814331    -0.80260
O76         O  0.01102657  0.04720169  0.13155220    -0.78700
O77         O  0.35804865  0.44910803  0.08413612    -0.82040
O78         O  0.41540092  0.42262839  0.99193727    -0.79900
O79         O  0.06900359  0.01608929  0.04433774    -0.78540
O80         O  0.48514423  0.08867916  0.02612801    -0.80070
O81         O  0.39676036  0.03519272  0.99604154    -0.81990
O82         O  0.02662464  0.07296975  0.05810732    -0.78730
O83         O  0.37399436  0.48249838  0.00701812    -0.81400
O84         O  0.45759793  0.03666229  0.15310594    -0.77140
O85         O  0.05655584  0.48604642  0.00098905    -0.77170
O86         O  0.46978965  0.43211929  0.47341295    -0.76820
O87         O  0.37102496  0.47934898  0.12718781    -0.80310
O88         O  0.41108923  0.07416120  0.05646095    -0.79740
O89         O  0.47171167  0.04847697  0.46970891    -0.78060
Eu90       Eu  0.42767719  0.50202842  0.11743700     2.39770
Eu91       Eu  0.49879665  0.46623197  0.00914652     2.39570
Eu92       Eu  0.01754670  0.01627785  0.08172788     2.38400
Eu93       Eu  0.40820469  0.45094549  0.04411327     2.39880
Eu94       Eu  0.44700021  0.03895402  0.02696998     2.39790
O95         O  0.44544089  0.48616178  0.00783163    -0.92480
O96         O  0.46465193  0.03726202  0.08144042    -0.91370
C97         C  0.39658948  0.07595725  0.08561862     1.02690
C98         C  0.49129895  0.03337368  0.45047854     1.01410
C99         C  0.48690726  0.05045812  0.15359693     1.00800
C100        C  0.35117569  0.46079416  0.11257616     1.02810
C101        C  0.44054228  0.41947825  0.47086395     1.01730
C102        C  0.07643631  0.50377384  0.01641321     1.00580
C103        C  0.01272361  0.09443774  0.03933880     1.00630
C104        C  0.37448551  0.01208958  0.99291018     1.03250
H105        H  0.01527102  0.03281987  0.01329254     0.30620
O106        O  0.49977166  0.01853135  0.02786955    -1.04640
H107        H  0.38737332  0.01195339  0.06316767     0.32670
O108        O  0.40936263  0.50392984  0.06302404    -1.07200
C109        C  0.40719245  0.36959282  0.24462816    -0.11900
C110        C  0.42907012  0.37613236  0.26881314     0.05100
C111        C  0.45030483  0.40509333  0.26428899    -0.07190
C112        C  0.44989446  0.42608045  0.23490242    -0.07930
C113        C  0.42948283  0.41845015  0.20977885    -0.02490
C114        C  0.40699942  0.39032053  0.21493142     0.04330
N115        N  0.38436482  0.38198975  0.19046191     0.66840
H116        H  0.39075403  0.34759370  0.24871449     0.15740
H117        H  0.46757402  0.44714632  0.23041579     0.15450
N118        N  0.47391057  0.41247329  0.28797773     0.74540
O119        O  0.36142022  0.35988287  0.19800121    -0.38910
O120        O  0.38626629  0.39709973  0.16164785    -0.38850
O121        O  0.49050649  0.39009578  0.30087532    -0.39560
O122        O  0.48137646  0.44199921  0.29267192    -0.39620
C123        C  0.46046580  0.37781314  0.39165939    -0.11900
C124        C  0.43200922  0.35746933  0.39004731     0.05100
C125        C  0.40517227  0.35781824  0.41461738    -0.07190
C126        C  0.40827780  0.37847776  0.44073237    -0.07930
C127        C  0.43678131  0.39949263  0.44194440    -0.02490
C128        C  0.46274064  0.39957449  0.41616550     0.04330
N129        N  0.49070262  0.42301071  0.41288060     0.66840
H130        H  0.48032001  0.37857859  0.37195016     0.15740
H131        H  0.38835147  0.37811273  0.46024092     0.15450
N132        N  0.37475865  0.33813661  0.41325858     0.74540
O133        O  0.01961198  0.41344758  0.40789745    -0.38910
O134        O  0.48614222  0.45334683  0.40860720    -0.38850
O135        O  0.37409567  0.31293893  0.39725827    -0.39560
O136        O  0.34852123  0.34506811  0.42937950    -0.39620
C137        C  0.02589189  0.10556937  0.21463364    -0.11900
C138        C  0.99783538  0.11137079  0.23533136     0.05100
C139        C  0.46653869  0.09753822  0.22895040    -0.07190
C140        C  0.46415764  0.07831083  0.20205793    -0.07930
C141        C  0.49217491  0.07163720  0.18144140    -0.02490
C142        C  0.02358237  0.08560150  0.18805190     0.04330
N143        N  0.05355511  0.07844140  0.16959638     0.66840
H144        H  0.05007224  0.11508200  0.22040929     0.15740
H145        H  0.43980771  0.06828668  0.19750864     0.15450
N146        N  0.43715145  0.10126644  0.25036336     0.74540
O147        O  0.07451275  0.10156018  0.15872918    -0.38910
O148        O  0.06206863  0.04915197  0.17016966    -0.38850
O149        O  0.43176258  0.12849136  0.26161505    -0.39560
O150        O  0.41483261  0.07823464  0.25537404    -0.39620
C151        C  0.02633330  0.09768921  0.38199830    -0.11900
C152        C  0.00540206  0.09125379  0.35688639     0.05100
C153        C  0.48297267  0.06318629  0.36151045    -0.07190
C154        C  0.48157241  0.04278817  0.39140125    -0.07930
C155        C  0.50082526  0.05050123  0.41736741    -0.02490
C156        C  0.02417100  0.07802371  0.41258199     0.04330
N157        N  0.04524475  0.08699925  0.43817311     0.66840
H158        H  0.04353731  0.11913183  0.37813492     0.15740
H159        H  0.46319806  0.02228042  0.39554081     0.15450
N160        N  0.45937088  0.05666331  0.33765652     0.74540
O161        O  0.07031382  0.10667994  0.43073095    -0.38910
O162        O  0.03824467  0.07701137  0.46849457    -0.38850
O163        O  0.45229038  0.02743734  0.33162872    -0.39560
O164        O  0.44177875  0.07919482  0.32683038    -0.39620
C165        C  0.99686923  0.23073273  0.28951423    -0.11900
C166        C  0.48147708  0.20302501  0.30870123     0.05100
C167        C  0.45551182  0.20752976  0.33318355    -0.07190
C168        C  0.44597445  0.23940186  0.33793866    -0.07930
C169        C  0.46105258  0.26709841  0.31852341    -0.02490
C170        C  0.48740284  0.26270312  0.29437222     0.04330
N171        N  0.50565096  0.29026631  0.27554573     0.66840
H172        H  0.01722996  0.22750127  0.27132431     0.15740
H173        H  0.42546772  0.24246281  0.35602551     0.15450
N174        N  0.43748914  0.18009495  0.35238641     0.74540
O175        O  0.01334180  0.31575446  0.28952089    -0.38910
O176        O  0.51744963  0.28776303  0.24603325    -0.38850
O177        O  0.42798212  0.18213268  0.38266440    -0.39560
O178        O  0.42771383  0.15535763  0.33828356    -0.39620
C179        C  0.16721987  0.00145938  0.48651379    -0.11900
C180        C  0.16793466  0.02130929  0.45604206     0.05100
C181        C  0.13946023  0.03767656  0.44788172    -0.07190
C182        C  0.11052206  0.03205639  0.46913549    -0.07930
C183        C  0.10937997  0.01155012  0.49899532    -0.02490
C184        C  0.13819506  0.49608936  0.00827821     0.04330
N185        N  0.13832321  0.47380001  0.03819445     0.66840
H186        H  0.18898418  0.48853524  0.49241920     0.15740
H187        H  0.08835366  0.04340069  0.46199152     0.15450
N188        N  0.13945006  0.05985625  0.41813995     0.74540
O189        O  0.16542865  0.46482671  0.04841816    -0.38910
O190        O  0.11169173  0.46131258  0.05348087    -0.38850
O191        O  0.11424830  0.06062628  0.40151614    -0.39560
O192        O  0.16362338  0.08041160  0.40975237    -0.39620
C193        C  0.29832952  0.04767759  0.45740626    -0.11900
C194        C  0.29064833  0.02454229  0.43476992     0.05100
C195        C  0.31274219  0.99953405  0.42931021    -0.07190
C196        C  0.34098995  0.99772668  0.44723858    -0.07930
C197        C  0.34725828  0.01929868  0.47156314    -0.02490
C198        C  0.32579357  0.04490706  0.47666527     0.04330
N199        N  0.32973056  0.06655339  0.00269827     0.66840
H200        H  0.28147602  0.06684197  0.46169988     0.15740
H201        H  0.35727975  0.47793351  0.44357001     0.15450
N202        N  0.30575687  0.47416974  0.40789608     0.74540
O203        O  0.31839115  0.09475713  0.00010513    -0.38910
O204        O  0.33988602  0.05602961  0.03029802    -0.38850
O205        O  0.32864438  0.96511947  0.38839569    -0.39560
O206        O  0.27858214  0.45720851  0.41233959    -0.39620
C207        C  0.11152082  0.46721953  0.13904247    -0.11900
C208        C  0.08182995  0.44959259  0.15150717     0.05100
C209        C  0.08073588  0.43102502  0.18305060    -0.07190
C210        C  0.10940495  0.43066636  0.20096269    -0.07930
C211        C  0.13889362  0.44843388  0.18807345    -0.02490
C212        C  0.13954678  0.46764540  0.15709597     0.04330
N213        N  0.16799677  0.48884413  0.14423595     0.66840
H214        H  0.11254678  0.48225536  0.11542331     0.15740
H215        H  0.10883400  0.41607064  0.22480716     0.15450
N216        N  0.05081497  0.41368964  0.19794043     0.74540
O217        O  0.17536866  0.49362202  0.11311963    -0.38910
O218        O  0.18328414  0.50597874  0.16346576    -0.38850
O219        O  0.03687474  0.39154694  0.18300675    -0.39560
O220        O  0.04199323  0.41598868  0.22833079    -0.39620
C221        C  0.25914142  0.45281952  0.14033481    -0.11900
C222        C  0.26006242  0.44193959  0.17451339     0.05100
C223        C  0.29066964  0.43324316  0.18632625    -0.07190
C224        C  0.31963780  0.43975470  0.16515211    -0.07930
C225        C  0.31891654  0.45183211  0.13151039    -0.02490
C226        C  0.28810115  0.45741016  0.11850173     0.04330
N227        N  0.28566695  0.46975302  0.08422304     0.66840
H228        H  0.23603484  0.45994584  0.13084149     0.15740
H229        H  0.34317899  0.43543076  0.17516291     0.15450
N230        N  0.29275270  0.41736769  0.21936449     0.74540
O231        O  0.26013117  0.46239024  0.06964147    -0.38910
O232        O  0.30716164  0.49058954  0.06947929    -0.38850
O233        O  0.27094075  0.39549026  0.23141080    -0.39560
O234        O  0.31834720  0.42205970  0.23480285    -0.39620
C235        C  0.20633477  0.00904338  0.28425521    -0.11900
C236        C  0.20743459  0.47500470  0.28212144     0.05100
C237        C  0.21310119  0.45423194  0.31094035    -0.07190
C238        C  0.21820869  0.46849108  0.34076684    -0.07930
C239        C  0.21748824  0.00247766  0.34290143    -0.02490
C240        C  0.21100910  0.02334739  0.31435675     0.04330
N241        N  0.20916387  0.05856405  0.31504380     0.66840
H242        H  0.20183672  0.02451542  0.26200676     0.15740
H243        H  0.22273305  0.45284684  0.36291084     0.15450
N244        N  0.21292691  0.41886509  0.31103822     0.74540
O245        O  0.20540016  0.07641846  0.28854255    -0.38910
O246        O  0.21069956  0.07219300  0.34185731    -0.38850
O247        O  0.21935170  0.40528977  0.28456708    -0.39560
O248        O  0.20755012  0.40085519  0.33822160    -0.39620
C249        C  0.35735649  0.10830321  0.11983596    -0.11900
C250        C  0.37634770  0.10518860  0.08961738     0.05100
C251        C  0.37521273  0.13017874  0.06292164    -0.07190
C252        C  0.35527342  0.15640527  0.06666450    -0.07930
C253        C  0.33757101  0.16021636  0.09692161    -0.02490
C254        C  0.33831635  0.13592010  0.12426183     0.04330
N255        N  0.32069853  0.13877985  0.15635379     0.66840
H256        H  0.35797899  0.08944313  0.14035039     0.15740
H257        H  0.35536481  0.17545448  0.04611326     0.15450
N258        N  0.39625944  0.13122605  0.03266072     0.74540
O259        O  0.31945944  0.11535230  0.17911501    -0.38910
O260        O  0.30665966  0.16463371  0.16255670    -0.38850
O261        O  0.38378095  0.13335807  0.00481336    -0.39560
O262        O  0.42692410  0.13778447  0.03358652    -0.39620
C263        C  0.38196191  0.28569918  0.07025609    -0.11900
C264        C  0.35641921  0.28037095  0.09597279     0.05100
C265        C  0.35196786  0.30391586  0.11917169    -0.07190
C266        C  0.37219140  0.33310188  0.11492367    -0.07930
C267        C  0.39725787  0.33904566  0.08881711    -0.02490
C268        C  0.40239659  0.31496972  0.06589450     0.04330
N269        N  0.42690950  0.31989562  0.03762470     0.66840
H270        H  0.38476586  0.26747306  0.05243067     0.15740
H271        H  0.36759920  0.35181409  0.13159492     0.15450
N272        N  0.32698449  0.29874593  0.14679233     0.74540
O273        O  0.43491803  0.29590111  0.02165655    -0.38910
O274        O  0.43934477  0.34817679  0.02709081    -0.38850
O275        O  0.31971746  0.27025094  0.16102699    -0.39560
O276        O  0.31421334  0.32297283  0.15901882    -0.39620
C277        C  0.05174630  0.13491432  0.05899945    -0.11900
C278        C  0.03090563  0.12740157  0.03396561     0.05100
C279        C  0.03171271  0.14960987  0.00457525    -0.07190
C280        C  0.05460437  0.17725943  0.50087923    -0.07930
C281        C  0.07603133  0.18365012  0.02578623    -0.02490
C282        C  0.07392553  0.16225444  0.05526499     0.04330
N283        N  0.09282938  0.16879268  0.08274856     0.66840
H284        H  0.05094767  0.11925407  0.08224867     0.15740
H285        H  0.05540573  0.19422365  0.47857208     0.15450
N286        N  0.01020820  0.14495908  0.47830242     0.74540
O287        O  0.08244951  0.18857687  0.10289744    -0.38910
O288        O  0.11459049  0.14942453  0.09121010    -0.38850
O289        O  0.47942628  0.13984809  0.48520853    -0.39560
O290        O  0.02053387  0.15373518  0.44833425    -0.39620
C291        C  0.09731912  0.33500999  0.01641673    -0.11900
C292        C  0.08122996  0.30420959  0.02740819     0.05100
C293        C  0.04781122  0.30308961  0.04103867    -0.07190
C294        C  0.03147538  0.33223204  0.04232880    -0.07930
C295        C  0.04773583  0.36292100  0.03209364    -0.02490
C296        C  0.08122690  0.36443877  0.01895175     0.04330
N297        N  0.10004366  0.39520173  0.01027504     0.66840
H298        H  0.12278396  0.33627814  0.00588792     0.15740
H299        H  0.50605761  0.33102329  0.05310639     0.15450
N300        N  0.03060942  0.27310773  0.05584749     0.74540
O301        O  0.12978078  0.39818824  0.01748746    -0.38910
O302        O  0.08914470  0.41734852  0.99095995    -0.38850
O303        O  0.04364217  0.25512496  0.07773319    -0.39560
O304        O  0.50073307  0.26686169  0.55045416    -0.39620
C305        C  0.21805869  0.22127248  0.09190902    -0.11900
C306        C  0.24603239  0.23276840  0.07074962     0.05100
C307        C  0.24175872  0.24945955  0.03910887    -0.07190
C308        C  0.20945662  0.25361666  0.02942637    -0.07930
C309        C  0.18154740  0.24158228  0.05045518    -0.02490
C310        C  0.18588792  0.22614141  0.08250879     0.04330
N311        N  0.15804714  0.21671035  0.10626181     0.66840
H312        H  0.22140578  0.20947460  0.11648902     0.15740
H313        H  0.20601565  0.26532480  0.50483458     0.15450
N314        N  0.26963396  0.26134984  0.01616728     0.74540
O315        O  0.15957217  0.19292643  0.12819640    -0.38910
O316        O  0.13414600  0.23514979  0.10874142    -0.38850
O317        O  0.29530018  0.24525164  0.01377070    -0.39560
O318        O  0.26739664  0.28628197  0.99580819    -0.39620
C319        C  0.09981363  0.27380297  0.02529098     0.03500
C320        C  0.13261137  0.27293706  0.53470178    -0.12650
C321        C  0.14820959  0.24309781  0.53768200     0.01000
C322        C  0.13065559  0.21392732  0.53180928    -0.11180
C323        C  0.09779403  0.21437575  0.02288344     0.03490
C324        C  0.08368603  0.24464150  0.01708955    -0.10600
H325        H  0.14538112  0.29497250  0.54163264     0.09110
H326        H  0.14204700  0.19067674  0.53583781     0.06610
H327        H  0.05868428  0.24501409  0.00935046     0.06460
C328        C  0.32262421  0.19218200  0.59882810     0.03500
C329        C  0.29031771  0.19642310  0.58945871    -0.12650
C330        C  0.27923907  0.22822846  0.58305684     0.01000
C331        C  0.30051376  0.25568373  0.58684030    -0.11180
C332        C  0.33288402  0.25153101  0.59596286     0.03490
C333        C  0.34371106  0.21983262  0.60204208    -0.10600
H334        H  0.27458898  0.17515541  0.58522678     0.09080
H335        H  0.29232116  0.28025728  0.58144551     0.06610
H336        H  0.36919280  0.21667496  0.60756542     0.06460
C337        C  0.16975461  0.44575529  0.70545670     0.03500
C338        C  0.17240778  0.45733133  0.73706184    -0.12650
C339        C  0.20377643  0.46219239  0.74919370     0.01000
C340        C  0.23230649  0.45693881  0.72885690    -0.11180
C341        C  0.22990970  0.44392872  0.69781142     0.03490
C342        C  0.19831470  0.43697712  0.68726445    -0.10600
H343        H  0.15048375  0.46403757  0.75135309     0.09080
H344        H  0.25633473  0.46371183  0.73715441     0.06610
H345        H  0.19588416  0.42737398  0.66327040     0.06460
C346        C  0.25764045  0.02457706  0.92074445     0.03500
C347        C  0.25368185  0.01945229  0.88706810    -0.12650
C348        C  0.22184769  0.01423340  0.87612853     0.01000
C349        C  0.19397161  0.01532598  0.89863555    -0.11180
C350        C  0.19748192  0.02201858  0.93184688     0.03490
C351        C  0.22931254  0.02650213  0.94263584    -0.10600
H352        H  0.27522863  0.01774717  0.86985689     0.09080
H353        H  0.16955155  0.00978142  0.89052153     0.06610
H354        H  0.23198093  0.03013912  0.96865288     0.06460
C355        C  0.00232499  0.12577139  0.76717051     0.03500
C356        C  0.99561989  0.15863681  0.77128375    -0.12650
C357        C  0.99341473  0.16984012  0.80343614     0.01000
C358        C  0.99980555  0.14819868  0.83099285    -0.11180
C359        C  0.00583074  0.11521875  0.82705756     0.03490
C360        C  0.00808191  0.10449093  0.79498342    -0.10600
H361        H  0.98968163  0.17461237  0.74992040     0.09080
H362        H  0.99778826  0.15642663  0.85588130     0.06610
H363        H  0.01205178  0.07887452  0.79190262     0.06460
C364        C  0.42977307  0.34194544  0.85856429     0.03500
C365        C  0.44200688  0.31083604  0.85480276    -0.12650
C366        C  0.44739631  0.29980638  0.82273833     0.01000
C367        C  0.44043111  0.32050299  0.79464627    -0.11180
C368        C  0.42973756  0.35215668  0.79833551     0.03490
C369        C  0.42329518  0.36219167  0.83028108    -0.10600
H370        H  0.44877460  0.29598919  0.87659128     0.09080
H371        H  0.44488789  0.31266477  0.76977908     0.06610
H372        H  0.41587297  0.38697818  0.83302053     0.06460
O373        O  0.02726056  0.41472443  0.51502664    -0.79760
O374        O  0.42610112  0.46374213  0.66890345    -0.81320
O375        O  0.03054653  0.43216765  0.62933887    -0.78340
O376        O  0.44057653  0.37877421  0.59752130    -0.76720
O377        O  0.39876621  0.39318396  0.56471376    -0.78510
O378        O  0.05175580  0.48522405  0.61845579    -0.79450
O379        O  0.45583140  0.41956008  0.65643997    -0.80770
O380        O  0.01532411  0.39217422  0.56882977    -0.81060
Eu381      Eu  0.47944800  0.42801660  0.59891068     2.39200
O382        O  0.42672151  0.44929551  0.59818525    -0.88570
O383        O  0.01699026  0.46327026  0.56329797    -0.92170
C384        C  0.02947436  0.39216203  0.53905230     1.02520
C385        C  0.43766731  0.43535844  0.67633097     1.02330
C386        C  0.05247697  0.45570093  0.63231598     1.02280
C387        C  0.41349448  0.37240837  0.58343754     1.00140
H388        H  0.48775288  0.48028536  0.64031705     0.29890
O389        O  0.48062618  0.48109453  0.61792092    -1.00960
H390        H  0.46125774  0.40913262  0.53687834     0.29920
O391        O  0.46157909  0.43080539  0.54462241    -1.03500
O392        O  0.39849309  0.05410263  0.61063261    -0.80730
O393        O  0.50282236  0.50506511  0.95814556    -0.80260
O394        O  0.01102661  0.04720178  0.63155197    -0.78700
O395        O  0.35804943  0.44910887  0.58413519    -0.82040
O396        O  0.41540195  0.42262896  0.49193661    -0.79900
O397        O  0.06900386  0.01608933  0.54433772    -0.78540
O398        O  0.48514409  0.08867981  0.52612834    -0.80070
O399        O  0.39676065  0.03519298  0.49604149    -0.81990
O400        O  0.02662464  0.07297005  0.55810744    -0.78730
O401        O  0.37399512  0.48249918  0.50701738    -0.81400
O402        O  0.45759796  0.03666237  0.65310596    -0.77140
O403        O  0.05655542  0.48604646  0.50098927    -0.77170
O404        O  0.46978868  0.43211873  0.97341385    -0.76820
O405        O  0.37102592  0.47934984  0.62718677    -0.80310
O406        O  0.41108951  0.07416150  0.55646097    -0.79740
O407        O  0.47171238  0.04847724  0.96970933    -0.78060
Eu408      Eu  0.42767828  0.50202906  0.61743553     2.39770
Eu409      Eu  0.49879758  0.46623285  0.50914513     2.39570
Eu410      Eu  0.01754684  0.01627806  0.58172755     2.38400
Eu411      Eu  0.40820549  0.45094618  0.54411240     2.39880
Eu412      Eu  0.44700062  0.03895441  0.52696987     2.39790
O413        O  0.44544174  0.48616236  0.50783094    -0.92480
O414        O  0.46465192  0.03726195  0.58144033    -0.91370
C415        C  0.39658957  0.07595748  0.58561861     1.02690
C416        C  0.49129971  0.03337403  0.95047889     1.01410
C417        C  0.48690725  0.05045833  0.65359686     1.00800
C418        C  0.35117654  0.46079505  0.61257521     1.02810
C419        C  0.44054129  0.41947779  0.97086460     1.01730
C420        C  0.07643593  0.50377386  0.51641344     1.00580
C421        C  0.01272358  0.09443804  0.53933898     1.00630
C422        C  0.37448577  0.01208982  0.49291019     1.03250
H423        H  0.01527066  0.03281948  0.51329296     0.30620
O424        O  0.49977162  0.01853166  0.52786964    -1.04640
H425        H  0.38737384  0.01195365  0.56316755     0.32670
O426        O  0.40936337  0.50393073  0.56302271    -1.07200
C427        C  0.40719356  0.36959365  0.74462700    -0.11900
C428        C  0.42907098  0.37613321  0.76881222     0.05100
C429        C  0.45030571  0.40509417  0.76428815    -0.07190
C430        C  0.44989564  0.42608123  0.73490146    -0.07930
C431        C  0.42948423  0.41845093  0.70977770    -0.02490
C432        C  0.40700077  0.39032133  0.71493019     0.04330
N433        N  0.38436631  0.38199055  0.69046056     0.66840
H434        H  0.39075510  0.34759456  0.74871326     0.15740
H435        H  0.46757523  0.44714708  0.73041494     0.15450
N436        N  0.47391117  0.41247419  0.78797713     0.74540
O437        O  0.36142180  0.35988355  0.69799969    -0.38910
O438        O  0.38626775  0.39710071  0.66164658    -0.38850
O439        O  0.49050695  0.39009671  0.80087501    -0.39560
O440        O  0.48137697  0.44200013  0.79267133    -0.39620
C441        C  0.46046500  0.37781411  0.89165912    -0.11900
C442        C  0.43200861  0.35747010  0.89004678     0.05100
C443        C  0.40517166  0.35781844  0.91461697    -0.07190
C444        C  0.40827701  0.37847760  0.94073232    -0.07930
C445        C  0.43678037  0.39949261  0.94194466    -0.02490
C446        C  0.46273968  0.39957503  0.91616565     0.04330
N447        N  0.49070160  0.42301133  0.91288117     0.66840
H448        H  0.48031924  0.37857996  0.87194989     0.15740
H449        H  0.38835069  0.37811213  0.96024094     0.15450
N450        N  0.37475820  0.33813661  0.91325798     0.74540
O451        O  0.01961240  0.41344730  0.90789712    -0.38910
O452        O  0.48614112  0.45334747  0.90860845    -0.38850
O453        O  0.37409542  0.31293920  0.89725726    -0.39560
O454        O  0.34852073  0.34506765  0.92937912    -0.39620
C455        C  0.02589198  0.10556923  0.71463357    -0.11900
C456        C  0.99783548  0.11137068  0.73533128     0.05100
C457        C  0.46653855  0.09753850  0.72895031    -0.07190
C458        C  0.46415754  0.07831102  0.70205789    -0.07930
C459        C  0.49217484  0.07163738  0.68144139    -0.02490
C460        C  0.02358244  0.08560137  0.68805183     0.04330
N461        N  0.05355517  0.07844119  0.66959634     0.66840
H462        H  0.05007234  0.11508181  0.72040923     0.15740
H463        H  0.43980763  0.06828683  0.69750861     0.15450
N464        N  0.43715130  0.10126677  0.75036326     0.74540
O465        O  0.07451285  0.10155993  0.65872912    -0.38910
O466        O  0.06206862  0.04915174  0.67016964    -0.38850
O467        O  0.43176246  0.12849168  0.76161495    -0.39560
O468        O  0.41483248  0.07823495  0.75537403    -0.39620
C469        C  0.02633345  0.09768916  0.88199807    -0.11900
C470        C  0.00540209  0.09125369  0.85688632     0.05100
C471        C  0.48297246  0.06318651  0.86151066    -0.07190
C472        C  0.48157255  0.04278845  0.89140155    -0.07930
C473        C  0.50082574  0.05050159  0.91736750    -0.02490
C474        C  0.02417123  0.07802382  0.91258185     0.04330
N475        N  0.04524512  0.08699956  0.93817275     0.66840
H476        H  0.04353750  0.11913175  0.87813452     0.15740
H477        H  0.46319825  0.02228067  0.89554133     0.15450
N478        N  0.45937053  0.05666339  0.83765690     0.74540
O479        O  0.07031430  0.10668002  0.93073027    -0.38910
O480        O  0.03824475  0.07701249  0.96849437    -0.38850
O481        O  0.45229029  0.02743743  0.83162892    -0.39560
O482        O  0.44177843  0.07919486  0.82683058    -0.39620
C483        C  0.99686934  0.23073264  0.78951410    -0.11900
C484        C  0.48147692  0.20302548  0.80870116     0.05100
C485        C  0.45551164  0.20753035  0.83318343    -0.07190
C486        C  0.44597427  0.23940250  0.83793840    -0.07930
C487        C  0.46105247  0.26709901  0.81852312    -0.02490
C488        C  0.48740282  0.26270359  0.79437206     0.04330
N489        N  0.50565109  0.29026672  0.77554560     0.66840
H490        H  0.01723008  0.22750120  0.77132418     0.15740
H491        H  0.42546751  0.24246352  0.85602519     0.15450
N492        N  0.43748892  0.18009561  0.85238638     0.74540
O493        O  0.01334175  0.31575442  0.78952066    -0.38910
O494        O  0.51744983  0.28776338  0.74603316    -0.38850
O495        O  0.42798193  0.18213345  0.88266435    -0.39560
O496        O  0.42771361  0.15535823  0.83828363    -0.39620
C497        C  0.16721966  0.00145944  0.98651371    -0.11900
C498        C  0.16793446  0.02130933  0.95604195     0.05100
C499        C  0.13946002  0.03767657  0.94788160    -0.07190
C500        C  0.11052181  0.03205639  0.96913536    -0.07930
C501        C  0.10937971  0.01155015  0.99899522    -0.02490
C502        C  0.13819473  0.49608929  0.50827852     0.04330
N503        N  0.13832280  0.47379983  0.53819470     0.66840
H504        H  0.18898444  0.48853530  0.99241875     0.15740
H505        H  0.08835340  0.04340068  0.96199138     0.15450
N506        N  0.13944987  0.05985624  0.91813982     0.74540
O507        O  0.16542819  0.46482641  0.54841840    -0.38910
O508        O  0.11169128  0.46131241  0.55348103    -0.38850
O509        O  0.11424817  0.06062619  0.90151592    -0.39560
O510        O  0.16362319  0.08041160  0.90975227    -0.39620
C511        C  0.29832940  0.04767760  0.95740626    -0.11900
C512        C  0.29064820  0.02454236  0.93476987     0.05100
C513        C  0.31274204  0.99953413  0.92931009    -0.07190
C514        C  0.34098977  0.99772666  0.94723849    -0.07930
C515        C  0.34725806  0.01929854  0.97156315    -0.02490
C516        C  0.32579342  0.04490698  0.97666530     0.04330
N517        N  0.32973067  0.06655351  0.50269822     0.66840
H518        H  0.28147592  0.06684199  0.96169991     0.15740
H519        H  0.35727925  0.47793260  0.94357061     0.15450
N520        N  0.30575669  0.47416923  0.90789618     0.74540
O521        O  0.31839125  0.09475723  0.50010503    -0.38910
O522        O  0.33988609  0.05602975  0.53029800    -0.38850
O523        O  0.32864429  0.96511967  0.88839548    -0.39560
O524        O  0.27858186  0.45720815  0.91233950    -0.39620
C525        C  0.11152108  0.46721957  0.63904230    -0.11900
C526        C  0.08183032  0.44959248  0.65150714     0.05100
C527        C  0.08073649  0.43102489  0.68305052    -0.07190
C528        C  0.10940571  0.43066627  0.70096240    -0.07930
C529        C  0.13889427  0.44843389  0.68807301    -0.02490
C530        C  0.13954717  0.46764551  0.65709562     0.04330
N531        N  0.16799700  0.48884446  0.64423554     0.66840
H532        H  0.11254683  0.48225548  0.61542320     0.15740
H533        H  0.10883493  0.41607051  0.72480684     0.15450
N534        N  0.05081566  0.41368951  0.69794053     0.74540
O535        O  0.17536868  0.49362256  0.61311920    -0.38910
O536        O  0.18328439  0.50597904  0.66346536    -0.38850
O537        O  0.03687527  0.39154685  0.68300692    -0.39560
O538        O  0.04199402  0.41598866  0.72833090    -0.39620
C539        C  0.25914224  0.45282042  0.64033396    -0.11900
C540        C  0.26006325  0.44194019  0.67451245     0.05100
C541        C  0.29067046  0.43324361  0.68632520    -0.07190
C542        C  0.31963864  0.43975534  0.66515111    -0.07930
C543        C  0.31891738  0.45183305  0.63150948    -0.02490
C544        C  0.28810198  0.45741120  0.61850088     0.04330
N545        N  0.28566776  0.46975420  0.58422223     0.66840
H546        H  0.23603565  0.45994682  0.63084071     0.15740
H547        H  0.34317982  0.43543121  0.67516184     0.15450
N548        N  0.29275347  0.41736764  0.71936323     0.74540
O549        O  0.26013196  0.46239151  0.56964065    -0.38910
O550        O  0.30716253  0.49059065  0.56947849    -0.38850
O551        O  0.27094163  0.39548990  0.73140905    -0.39560
O552        O  0.31834792  0.42205941  0.73480173    -0.39620
C553        C  0.20633472  0.00904327  0.78425512    -0.11900
C554        C  0.20743541  0.47500466  0.78212085     0.05100
C555        C  0.21310208  0.45423198  0.81093975    -0.07190
C556        C  0.21820928  0.46849106  0.84076631    -0.07930
C557        C  0.21748828  0.00247776  0.84290134    -0.02490
C558        C  0.21100895  0.02334737  0.81435664     0.04330
N559        N  0.20916338  0.05856401  0.81504366     0.66840
H560        H  0.20183649  0.02451521  0.76200667     0.15740
H561        H  0.22273370  0.45284678  0.86291027     0.15450
N562        N  0.21292809  0.41886520  0.81103750     0.74540
O563        O  0.20539897  0.07641827  0.78854251    -0.38910
O564        O  0.21069960  0.07219309  0.84185704    -0.38850
O565        O  0.21935592  0.40529021  0.78456675    -0.39560
O566        O  0.20754918  0.40085512  0.83822056    -0.39620
C567        C  0.35735653  0.10830357  0.61983590    -0.11900
C568        C  0.37634781  0.10518889  0.58961736     0.05100
C569        C  0.37521298  0.13017908  0.56292164    -0.07190
C570        C  0.35527389  0.15640578  0.56666450    -0.07930
C571        C  0.33757144  0.16021695  0.59692157    -0.02490
C572        C  0.33831651  0.13592059  0.62426175     0.04330
N573        N  0.32069857  0.13878035  0.65635364     0.66840
H574        H  0.35797887  0.08944344  0.64035032     0.15740
H575        H  0.35536543  0.17545501  0.54611326     0.15450
N576        N  0.39625966  0.13122627  0.53266073     0.74540
O577        O  0.31945924  0.11535275  0.67911483    -0.38910
O578        O  0.30665979  0.16463427  0.66255652    -0.38850
O579        O  0.38378114  0.13335814  0.50481339    -0.39560
O580        O  0.42692432  0.13778475  0.53358649    -0.39620
C581        C  0.38196252  0.28569986  0.57025543    -0.11900
C582        C  0.35641972  0.28037176  0.59597207     0.05100
C583        C  0.35196835  0.30391684  0.61917081    -0.07190
C584        C  0.37219199  0.33310281  0.61492272    -0.07930
C585        C  0.39725863  0.33904640  0.58881629    -0.02490
C586        C  0.40239729  0.31497036  0.56589378     0.04330
N587        N  0.42691022  0.31989614  0.53762399     0.66840
H588        H  0.38476647  0.26747364  0.55243012     0.15740
H589        H  0.36759973  0.35181515  0.63159381     0.15450
N590        N  0.32698486  0.29874712  0.64679136     0.74540
O591        O  0.43491842  0.29590165  0.52165567    -0.38910
O592        O  0.43934590  0.34817722  0.52709031    -0.38850
O593        O  0.31971774  0.27025222  0.66102619    -0.39560
O594        O  0.31421374  0.32297414  0.65901764    -0.39620
C595        C  0.05174629  0.13491454  0.55899965    -0.11900
C596        C  0.03090559  0.12740185  0.53396582     0.05100
C597        C  0.03171277  0.14961006  0.50457541    -0.07190
C598        C  0.05460421  0.17725933  0.00087911    -0.07930
C599        C  0.07603151  0.18365018  0.52578635    -0.02490
C600        C  0.07392565  0.16225454  0.55526514     0.04330
N601        N  0.09282957  0.16879273  0.58274868     0.66840
H602        H  0.05094761  0.11925431  0.58224890     0.15740
H603        H  0.05540552  0.19422357  0.97857198     0.15450
N604        N  0.01020812  0.14495892  0.97830227     0.74540
O605        O  0.08244979  0.18857697  0.60289755    -0.38910
O606        O  0.11459056  0.14942445  0.59121026    -0.38850
O607        O  0.47942625  0.13984778  0.98520847    -0.39560
O608        O  0.02053376  0.15373507  0.94833411    -0.39620
C609        C  0.09731906  0.33500995  0.51641692    -0.11900
C610        C  0.08122996  0.30420953  0.52740843     0.05100
C611        C  0.04781121  0.30308948  0.54103893    -0.07190
C612        C  0.03147533  0.33223187  0.54232911    -0.07930
C613        C  0.04773574  0.36292084  0.53209397    -0.02490
C614        C  0.08122678  0.36443868  0.51895197     0.04330
N615        N  0.10004346  0.39520168  0.51027515     0.66840
H616        H  0.12278388  0.33627813  0.50588806     0.15740
H617        H  0.50605785  0.33102446  0.55310480     0.15450
N618        N  0.03060945  0.27310757  0.55584770     0.74540
O619        O  0.12978061  0.39818827  0.51748743    -0.38910
O620        O  0.08914438  0.41734839  0.49096004    -0.38850
O621        O  0.04364219  0.25512482  0.57773341    -0.39560
O622        O  0.50073315  0.26686058  0.05045511    -0.39620
C623        C  0.21805901  0.22127287  0.59190911    -0.11900
C624        C  0.24603266  0.23276885  0.57074965     0.05100
C625        C  0.24175886  0.24945987  0.53910886    -0.07190
C626        C  0.20945672  0.25361685  0.52942642    -0.07930
C627        C  0.18154756  0.24158244  0.55045531    -0.02490
C628        C  0.18588819  0.22614164  0.58250892     0.04330
N629        N  0.15804745  0.21671047  0.60626197     0.66840
H630        H  0.22140617  0.20947505  0.61648912     0.15740
H631        H  0.20601563  0.26532468  0.00483454     0.15450
N632        N  0.26963402  0.26135011  0.51616715     0.74540
O633        O  0.15957256  0.19292649  0.62819648    -0.38910
O634        O  0.13414625  0.23514982  0.60874164    -0.38850
O635        O  0.29530022  0.24525188  0.51377049    -0.39560
O636        O  0.26739661  0.28628217  0.49580800    -0.39620
C637        C  0.09981389  0.77380279  0.52529109     0.03500
C638        C  0.13261154  0.77293693  0.03470166    -0.12650
C639        C  0.14820974  0.74309768  0.03768201     0.01000
C640        C  0.13065571  0.71392716  0.03180939    -0.11180
C641        C  0.09779422  0.71437554  0.52288373     0.03490
C642        C  0.08368629  0.74464131  0.51708972    -0.10600
H643        H  0.14538130  0.79497239  0.04163246     0.09110
H644        H  0.14204709  0.69067658  0.03583802     0.06610
H645        H  0.05868456  0.74501391  0.50935058     0.06460
C646        C  0.32262414  0.69218222  0.09882903     0.03500
C647        C  0.29031768  0.69642339  0.08945954    -0.12650
C648        C  0.27923923  0.72822877  0.08305720     0.01000
C649        C  0.30051407  0.75568403  0.08684036    -0.11180
C650        C  0.33288429  0.75153125  0.09596302     0.03490
C651        C  0.34371115  0.71983284  0.10204263    -0.10600
H652        H  0.27458883  0.67515569  0.08522788     0.09080
H653        H  0.29232161  0.78025759  0.08144529     0.06610
H654        H  0.36919287  0.71667511  0.10756604     0.06460
C655        C  0.16975501  0.94575559  0.20545646     0.03500
C656        C  0.17240797  0.95733159  0.23706165    -0.12650
C657        C  0.20377655  0.96219284  0.24919360     0.01000
C658        C  0.23230672  0.95693950  0.22885689    -0.11180
C659        C  0.22991017  0.94392939  0.19781140     0.03490
C660        C  0.19831524  0.93697760  0.18726431    -0.10600
H661        H  0.15048383  0.96403762  0.25135287     0.09080
H662        H  0.25633488  0.96371268  0.23715452     0.06610
H663        H  0.19588485  0.92737441  0.16327026     0.06460
C664        C  0.25764021  0.52457708  0.42074484     0.03500
C665        C  0.25368157  0.51945235  0.38706847    -0.12650
C666        C  0.22184738  0.51423351  0.37612891     0.01000
C667        C  0.19397132  0.51532610  0.39863596    -0.11180
C668        C  0.19748165  0.52201868  0.43184728     0.03490
C669        C  0.22931230  0.52650217  0.44263624    -0.10600
H670        H  0.27522832  0.51774721  0.36985723     0.09080
H671        H  0.16955126  0.50978156  0.39052195     0.06610
H672        H  0.23198070  0.53013913  0.46865328     0.06460
C673        C  0.00232488  0.62577123  0.26717063     0.03500
C674        C  0.99561985  0.65863667  0.27128384    -0.12650
C675        C  0.99341464  0.66984000  0.30343622     0.01000
C676        C  0.99980537  0.64819855  0.33099296    -0.11180
C677        C  0.00583049  0.61521859  0.32705771     0.03490
C678        C  0.00808169  0.60449075  0.29498357    -0.10600
H679        H  0.98968166  0.67461224  0.24992047     0.09080
H680        H  0.99778806  0.65642652  0.35588140     0.06610
H681        H  0.01205150  0.57887433  0.29190280     0.06460
C682        C  0.42977323  0.84194599  0.35856392     0.03500
C683        C  0.44200681  0.81083651  0.35480248    -0.12650
C684        C  0.44739616  0.79980675  0.32273811     0.01000
C685        C  0.44043112  0.82050335  0.29464599    -0.11180
C686        C  0.42973779  0.85215712  0.29833516     0.03490
C687        C  0.42329547  0.86219222  0.33028068    -0.10600
H688        H  0.44877447  0.79598967  0.37659104     0.09080
H689        H  0.44488787  0.81266505  0.26977883     0.06610
H690        H  0.41587346  0.88697880  0.33302007     0.06460
O691        O  0.02726101  0.91472449  0.01502634    -0.79760
O692        O  0.42610178  0.96374246  0.16890327    -0.81320
O693        O  0.03054689  0.93216762  0.12933855    -0.78340
O694        O  0.44057708  0.87877423  0.09752139    -0.76720
O695        O  0.39876670  0.89318388  0.06471384    -0.78510
O696        O  0.05175614  0.98522405  0.11845553    -0.79450
O697        O  0.45583206  0.91956034  0.15643984    -0.80770
O698        O  0.01532444  0.89217418  0.06882942    -0.81060
Eu699      Eu  0.47944869  0.92801652  0.09891059     2.39200
O700        O  0.42672254  0.94929607  0.09818470    -0.88570
O701        O  0.01699059  0.96327031  0.06329772    -0.92170
C702        C  0.02947473  0.89216203  0.03905197     1.02520
C703        C  0.43766800  0.93535880  0.17633079     1.02330
C704        C  0.05247732  0.95570091  0.13231570     1.02280
C705        C  0.41349505  0.87240835  0.08343762     1.00140
H706        H  0.48775346  0.98028506  0.14031814     0.29890
O707        O  0.48062668  0.98109421  0.11792191    -1.00960
H708        H  0.46125771  0.90913114  0.03687825     0.29920
O709        O  0.46157912  0.93080410  0.04462233    -1.03500
O710        O  0.39849148  0.55410166  0.11063429    -0.80730
O711        O  0.50282108  0.00506394  0.45814338    -0.80260
O712        O  0.01102640  0.54720176  0.13155195    -0.78700
O713        O  0.35804996  0.94910894  0.08413538    -0.82040
O714        O  0.41540186  0.92262888  0.99193626    -0.79900
O715        O  0.06900354  0.51608928  0.04433765    -0.78540
O716        O  0.48514345  0.58867874  0.02613049    -0.80070
O717        O  0.39676032  0.53519220  0.99604219    -0.81990
O718        O  0.02662436  0.57297005  0.05810746    -0.78730
O719        O  0.37399500  0.98249875  0.00701735    -0.81400
O720        O  0.45759578  0.53666135  0.15310785    -0.77140
O721        O  0.05655591  0.98604651  0.00098906    -0.77170
O722        O  0.46978982  0.93211911  0.47341291    -0.76820
O723        O  0.37102662  0.97935013  0.12718681    -0.80310
O724        O  0.41108862  0.57416062  0.05646275    -0.79740
O725        O  0.47171130  0.54847680  0.46970886    -0.78060
Eu726      Eu  0.42767892  0.00202939  0.11743548     2.39770
Eu727      Eu  0.49879746  0.96623178  0.00914504     2.39570
Eu728      Eu  0.01754652  0.51627807  0.08172750     2.38400
Eu729      Eu  0.40820573  0.95094602  0.04411222     2.39880
Eu730      Eu  0.44700003  0.53895364  0.02697141     2.39790
O731        O  0.44544165  0.98616204  0.00783011    -0.92480
O732        O  0.46465059  0.53726071  0.08144214    -0.91370
C733        C  0.39658832  0.57595664  0.08562029     1.02690
C734        C  0.49129856  0.53337350  0.45047855     1.01410
C735        C  0.48690516  0.55045709  0.15359892     1.00800
C736        C  0.35117719  0.96079529  0.11257535     1.02810
C737        C  0.44054239  0.91947838  0.47086380     1.01730
C738        C  0.07643638  0.00377394  0.01641324     1.00580
C739        C  0.01272333  0.59443806  0.03933900     1.00630
C740        C  0.37448522  0.51208919  0.99291078     1.03250
H741        H  0.01527020  0.53281942  0.01329302     0.30620
O742        O  0.49976241  0.51852296  0.02787957    -1.04640
H743        H  0.38737349  0.51195255  0.06316859     0.32670
O744        O  0.40936274  0.00393060  0.06302296    -1.07200
C745        C  0.40719385  0.86959432  0.24462674    -0.11900
C746        C  0.42907143  0.87613364  0.26881187     0.05100
C747        C  0.45030646  0.90509439  0.26428779    -0.07190
C748        C  0.44989654  0.92608147  0.23490112    -0.07930
C749        C  0.42948492  0.91845140  0.20977746    -0.02490
C750        C  0.40700116  0.89032206  0.21492997     0.04330
N751        N  0.38436649  0.88199161  0.19046041     0.66840
H752        H  0.39075515  0.84759540  0.24871303     0.15740
H753        H  0.46757634  0.94714715  0.23041454     0.15450
N754        N  0.47391201  0.91247420  0.28797676     0.74540
O755        O  0.36142155  0.85988507  0.19799970    -0.38910
O756        O  0.38626816  0.89710160  0.16164634    -0.38850
O757        O  0.49050759  0.89009657  0.30087463    -0.39560
O758        O  0.48137804  0.94200009  0.29267097    -0.39620
C759        C  0.46046563  0.87781445  0.39165848    -0.11900
C760        C  0.43200906  0.85747066  0.39004630     0.05100
C761        C  0.40517225  0.85781913  0.41461661    -0.07190
C762        C  0.40827786  0.87847832  0.44073186    -0.07930
C763        C  0.43678136  0.89949314  0.44194402    -0.02490
C764        C  0.46274062  0.89957532  0.41616498     0.04330
N765        N  0.49070276  0.92301134  0.41288043     0.66840
H766        H  0.48031979  0.87858012  0.37194918     0.15740
H767        H  0.38835163  0.87811301  0.46024055     0.15450
N768        N  0.37475871  0.83813735  0.41325786     0.74540
O769        O  0.01961273  0.91344741  0.40789690    -0.38910
O770        O  0.48614262  0.95334752  0.40860722    -0.38850
O771        O  0.37409577  0.81293987  0.39725724    -0.39560
O772        O  0.34852139  0.84506842  0.42937923    -0.39620
C773        C  0.02589187  0.60556907  0.21463368    -0.11900
C774        C  0.99783538  0.61137052  0.23533140     0.05100
C775        C  0.46653682  0.59753801  0.22895202    -0.07190
C776        C  0.46415560  0.57831014  0.20205989    -0.07930
C777        C  0.49217278  0.57163636  0.18144329    -0.02490
C778        C  0.02358231  0.58560125  0.18805190     0.04330
N779        N  0.05355503  0.57844109  0.16959639     0.66840
H780        H  0.05007224  0.61508164  0.22040934     0.15740
H781        H  0.43980566  0.56828580  0.19751088     0.15450
N782        N  0.43714968  0.60126664  0.25036499     0.74540
O783        O  0.07451273  0.60155982  0.15872922    -0.38910
O784        O  0.06206845  0.54915163  0.17016961    -0.38850
O785        O  0.43176109  0.62849172  0.26161643    -0.39560
O786        O  0.41483067  0.57823501  0.25537596    -0.39620
C787        C  0.02633316  0.59768904  0.38199822    -0.11900
C788        C  0.00540178  0.59125356  0.35688649     0.05100
C789        C  0.48297247  0.56318681  0.36151102    -0.07190
C790        C  0.48157240  0.54278831  0.39140147    -0.07930
C791        C  0.50082511  0.55050119  0.41736770    -0.02490
C792        C  0.02417091  0.57802376  0.41258204     0.04330
N793        N  0.04524483  0.58699956  0.43817289     0.66840
H794        H  0.04353725  0.61913160  0.37813461     0.15740
H795        H  0.46319818  0.52228043  0.39554079     0.15450
N796        N  0.45937058  0.55666399  0.33765715     0.74540
O797        O  0.07031405  0.60667995  0.43073033    -0.38910
O798        O  0.03824439  0.57701269  0.46849454    -0.38850
O799        O  0.45229004  0.52743806  0.33162925    -0.39560
O800        O  0.44177809  0.57919546  0.32683164    -0.39620
C801        C  0.99686939  0.73073252  0.28951413    -0.11900
C802        C  0.48147652  0.70302572  0.30870175     0.05100
C803        C  0.45551122  0.70753077  0.33318391    -0.07190
C804        C  0.44597387  0.73940298  0.33793856    -0.07930
C805        C  0.46105216  0.76709933  0.31852310    -0.02490
C806        C  0.48740256  0.76270373  0.29437218     0.04330
N807        N  0.50565096  0.79026673  0.27554564     0.66840
H808        H  0.01723012  0.72750102  0.27132422     0.15740
H809        H  0.42546708  0.74246416  0.35602526     0.15450
N810        N  0.43748851  0.68009616  0.35238708     0.74540
O811        O  0.01334197  0.81575428  0.28952060    -0.38910
O812        O  0.51744974  0.78776322  0.24603325    -0.38850
O813        O  0.42798144  0.68213429  0.38266498    -0.39560
O814        O  0.42771321  0.65535863  0.33828455    -0.39620
C815        C  0.16721931  0.50145950  0.48651407    -0.11900
C816        C  0.16793416  0.52130942  0.45604233     0.05100
C817        C  0.13945968  0.53767659  0.44788191    -0.07190
C818        C  0.11052142  0.53205632  0.46913558    -0.07930
C819        C  0.10937928  0.51155005  0.49899543    -0.02490
C820        C  0.13819514  0.99608931  0.00827824     0.04330
N821        N  0.13832322  0.97379985  0.03819441     0.66840
H822        H  0.18898472  0.98853504  0.49241885     0.15740
H823        H  0.08835301  0.54340058  0.46199156     0.15450
N824        N  0.13944957  0.55985630  0.41814015     0.74540
O825        O  0.16542862  0.96482643  0.04841809    -0.38910
O826        O  0.11169171  0.96131241  0.05348074    -0.38850
O827        O  0.11424792  0.56062621  0.40151618    -0.39560
O828        O  0.16362287  0.58041169  0.40975267    -0.39620
C829        C  0.29832925  0.54767765  0.45740659    -0.11900
C830        C  0.29064800  0.52454241  0.43477022     0.05100
C831        C  0.31274192  0.49953425  0.42931034    -0.07190
C832        C  0.34098981  0.49772692  0.44723855    -0.07930
C833        C  0.34725822  0.51929890  0.47156312    -0.02490
C834        C  0.32579343  0.54490717  0.47666545     0.04330
N835        N  0.32973031  0.56655297  0.00269861     0.66840
H836        H  0.28147572  0.56684197  0.46170036     0.15740
H837        H  0.35727987  0.97793322  0.44357016     0.15450
N838        N  0.30575718  0.97416952  0.40789598     0.74540
O839        O  0.31839126  0.59475686  0.00010530    -0.38910
O840        O  0.33988530  0.55602902  0.03029853    -0.38850
O841        O  0.32864403  0.46511975  0.38839570    -0.39560
O842        O  0.27858245  0.95720827  0.41233950    -0.39620
C843        C  0.11152145  0.96721951  0.13904195    -0.11900
C844        C  0.08183069  0.94959246  0.15150685     0.05100
C845        C  0.08073689  0.93102494  0.18305027    -0.07190
C846        C  0.10940613  0.93066637  0.20096213    -0.07930
C847        C  0.13889469  0.94843398  0.18807269    -0.02490
C848        C  0.13954755  0.96764552  0.15709525     0.04330
N849        N  0.16799734  0.98884450  0.14423515     0.66840
H850        H  0.11254719  0.98225537  0.11542282     0.15740
H851        H  0.10883536  0.91607069  0.22480661     0.15450
N852        N  0.05081606  0.91368961  0.19794037     0.74540
O853        O  0.17536909  0.99362247  0.11311881    -0.38910
O854        O  0.18328458  0.00597928  0.16346491    -0.38850
O855        O  0.03687553  0.89154702  0.18300677    -0.39560
O856        O  0.04199454  0.91598873  0.22833076    -0.39620
C857        C  0.25914289  0.95282081  0.14033401    -0.11900
C858        C  0.26006385  0.94194091  0.17451260     0.05100
C859        C  0.29067110  0.93324463  0.18632552    -0.07190
C860        C  0.31963928  0.93975622  0.16515143    -0.07930
C861        C  0.31891804  0.95183351  0.13150968    -0.02490
C862        C  0.28810265  0.95741145  0.11850097     0.04330
N863        N  0.28566848  0.96975413  0.08422221     0.66840
H864        H  0.23603631  0.95994704  0.13084063     0.15740
H865        H  0.34318047  0.93543231  0.17516224     0.15450
N866        N  0.29275417  0.91736909  0.21936374     0.74540
O867        O  0.26013280  0.96239109  0.06964061    -0.38910
O868        O  0.30716312  0.99059066  0.06947840    -0.38850
O869        O  0.27094228  0.89549155  0.23140996    -0.39560
O870        O  0.31834868  0.92206106  0.23480209    -0.39620
C871        C  0.20633409  0.50904328  0.28425560    -0.11900
C872        C  0.20743532  0.97500483  0.28212090     0.05100
C873        C  0.21310178  0.95423194  0.31093976    -0.07190
C874        C  0.21820910  0.96849093  0.34076637    -0.07930
C875        C  0.21748785  0.50247783  0.34290176    -0.02490
C876        C  0.21100861  0.52334743  0.31435703     0.04330
N877        N  0.20916343  0.55856412  0.31504393     0.66840
H878        H  0.20183593  0.52451523  0.26200713     0.15740
H879        H  0.22273337  0.95284661  0.36291034     0.15450
N880        N  0.21292757  0.91886510  0.31103745     0.74540
O881        O  0.20539992  0.57641846  0.28854258    -0.38910
O882        O  0.21069897  0.57219315  0.34185741    -0.38850
O883        O  0.21935238  0.90528993  0.28456621    -0.39560
O884        O  0.20755080  0.90085506  0.33822074    -0.39620
C885        C  0.35735541  0.60830327  0.11983742    -0.11900
C886        C  0.37634676  0.60518828  0.08961897     0.05100
C887        C  0.37521237  0.63017851  0.06292322    -0.07190
C888        C  0.35527366  0.65640552  0.06666588    -0.07930
C889        C  0.33757116  0.66021700  0.09692283    -0.02490
C890        C  0.33831578  0.63592062  0.12426308     0.04330
N891        N  0.32069778  0.63878071  0.15635487     0.66840
H892        H  0.35797742  0.58944315  0.14035191     0.15740
H893        H  0.35536556  0.67545472  0.04611457     0.15450
N894        N  0.39625928  0.63122550  0.03266251     0.74540
O895        O  0.31945794  0.61535311  0.17911610    -0.38910
O896        O  0.30665954  0.66463495  0.16255764    -0.38850
O897        O  0.38378105  0.63335745  0.00481502    -0.39560
O898        O  0.42692391  0.63778384  0.03358859    -0.39620
C899        C  0.38196266  0.78570010  0.07025521    -0.11900
C900        C  0.35642010  0.78037195  0.09597209     0.05100
C901        C  0.35196909  0.80391688  0.11917104    -0.07190
C902        C  0.37219293  0.83310272  0.11492303    -0.07930
C903        C  0.39725928  0.83904639  0.08881636    -0.02490
C904        C  0.40239757  0.81497053  0.06589357     0.04330
N905        N  0.42691028  0.81989637  0.03762357     0.66840
H906        H  0.38476633  0.76747398  0.05242977     0.15740
H907        H  0.36760102  0.85181492  0.13159438     0.15450
N908        N  0.32698575  0.79874722  0.14679170     0.74540
O909        O  0.43491775  0.79590208  0.02165461    -0.38910
O910        O  0.43934671  0.84817733  0.02709052    -0.38850
O911        O  0.31971858  0.77025232  0.16102651    -0.39560
O912        O  0.31421478  0.82297426  0.15901808    -0.39620
C913        C  0.05174616  0.63491448  0.05899968    -0.11900
C914        C  0.03090543  0.62740184  0.03396584     0.05100
C915        C  0.03171272  0.64961004  0.00457541    -0.07190
C916        C  0.05460431  0.67725920  0.50087933    -0.07930
C917        C  0.07603159  0.68365003  0.02578635    -0.02490
C918        C  0.07392563  0.66225441  0.05526515     0.04330
N919        N  0.09282954  0.66879255  0.08274871     0.66840
H920        H  0.05094740  0.61925427  0.08224894     0.15740
H921        H  0.05540569  0.69422345  0.47857220     0.15450
N922        N  0.01020807  0.64495898  0.47830248     0.74540
O923        O  0.08244982  0.68857683  0.10289756    -0.38910
O924        O  0.11459050  0.64942424  0.09121029    -0.38850
O925        O  0.47942602  0.63984800  0.48520908    -0.39560
O926        O  0.02053369  0.65373521  0.44833432    -0.39620
C927        C  0.09731932  0.83500983  0.01641665    -0.11900
C928        C  0.08123017  0.80420943  0.02740815     0.05100
C929        C  0.04781141  0.80308944  0.04103859    -0.07190
C930        C  0.03147557  0.83223186  0.04232873    -0.07930
C931        C  0.04773604  0.86292081  0.03209362    -0.02490
C932        C  0.08122710  0.86443859  0.01895168     0.04330
N933        N  0.10004384  0.89520156  0.01027491     0.66840
H934        H  0.12278416  0.83627797  0.00588783     0.15740
H935        H  0.50605754  0.83102425  0.05310479     0.15450
N936        N  0.03060958  0.77310756  0.05584736     0.74540
O937        O  0.12978096  0.89818810  0.01748727    -0.38910
O938        O  0.08914484  0.91734831  0.99095979    -0.38850
O939        O  0.04364224  0.75512482  0.07773315    -0.39560
O940        O  0.50073282  0.76686194  0.55045422    -0.39620
C941        C  0.21805914  0.72127310  0.09190934    -0.11900
C942        C  0.24603282  0.73276914  0.07074993     0.05100
C943        C  0.24175903  0.74946008  0.03910910    -0.07190
C944        C  0.20945689  0.75361689  0.02942656    -0.07930
C945        C  0.18154771  0.74158238  0.05045537    -0.02490
C946        C  0.18588832  0.72614168  0.08250903     0.04330
N947        N  0.15804755  0.71671043  0.10626202     0.66840
H948        H  0.22140627  0.70947535  0.11648938     0.15740
H949        H  0.20601577  0.76532478  0.50483465     0.15450
N950        N  0.26963419  0.76135035  0.01616741     0.74540
O951        O  0.15957268  0.69292645  0.12819652    -0.38910
O952        O  0.13414629  0.73514970  0.10874164    -0.38850
O953        O  0.29530041  0.74525215  0.01377077    -0.39560
O954        O  0.26739674  0.78628237  0.99580821    -0.39620
C955        C  0.09981388  0.77380284  0.02529103     0.03500
C956        C  0.13261157  0.77293683  0.53470168    -0.12650
C957        C  0.14820972  0.74309755  0.53768205     0.01000
C958        C  0.13065561  0.71392704  0.53180949    -0.11180
C959        C  0.09779434  0.71437563  0.02288360     0.03490
C960        C  0.08368634  0.74464136  0.01708960    -0.10600
H961        H  0.14538139  0.79497228  0.54163243     0.09110
H962        H  0.14204696  0.69067644  0.53583812     0.06610
H963        H  0.05868461  0.74501394  0.00935045     0.06460
C964        C  0.32262454  0.69218228  0.59882826     0.03500
C965        C  0.29031802  0.69642338  0.58945892    -0.12650
C966        C  0.27923940  0.72822873  0.58305691     0.01000
C967        C  0.30051413  0.75568402  0.58684023    -0.11180
C968        C  0.33288442  0.75153130  0.59596277     0.03490
C969        C  0.34371143  0.71983292  0.60204207    -0.10600
H970        H  0.27458926  0.67515567  0.58522711     0.09080
H971        H  0.29232156  0.78025756  0.58144537     0.06610
H972        H  0.36919318  0.71667525  0.60756538     0.06460
C973        C  0.16975501  0.94575547  0.70545653     0.03500
C974        C  0.17240809  0.95733144  0.73706173    -0.12650
C975        C  0.20377671  0.96219253  0.74919366     0.01000
C976        C  0.23230682  0.95693905  0.72885689    -0.11180
C977        C  0.22991014  0.94392902  0.69781139     0.03490
C978        C  0.19831516  0.93697738  0.68726433    -0.10600
H979        H  0.15048401  0.96403760  0.75135296     0.09080
H980        H  0.25633502  0.96371212  0.73715447     0.06610
H981        H  0.19588471  0.92737427  0.66327026     0.06460
C982        C  0.25764029  0.52457689  0.92074455     0.03500
C983        C  0.25368174  0.51945213  0.88706817    -0.12650
C984        C  0.22184758  0.51423345  0.87612849     0.01000
C985        C  0.19397147  0.51532613  0.89863545    -0.11180
C986        C  0.19748174  0.52201868  0.93184680     0.03490
C987        C  0.22931235  0.52650212  0.94263583    -0.10600
H988        H  0.27522853  0.51774688  0.86985703     0.09080
H989        H  0.16955142  0.50978164  0.89052138     0.06610
H990        H  0.23198069  0.53013909  0.96865288     0.06460
C991        C  0.00232506  0.62577151  0.76717069     0.03500
C992        C  0.99561993  0.65863690  0.77128394    -0.12650
C993        C  0.99341477  0.66984021  0.80343631     0.01000
C994        C  0.99980562  0.64819879  0.83099304    -0.11180
C995        C  0.00583089  0.61521888  0.82705774     0.03490
C996        C  0.00808207  0.60449107  0.79498359    -0.10600
H997        H  0.98968163  0.67461245  0.74992059     0.09080
H998        H  0.99778827  0.65642674  0.85588149     0.06610
H999        H  0.01205197  0.57887466  0.79190278     0.06460
C1000       C  0.42977345  0.84194548  0.85856382     0.03500
C1001       C  0.44200696  0.81083599  0.85480230    -0.12650
C1002       C  0.44739625  0.79980629  0.82273789     0.01000
C1003       C  0.44043130  0.82050301  0.79464581    -0.11180
C1004       C  0.42973805  0.85215681  0.79833507     0.03490
C1005       C  0.42329573  0.86219181  0.83028064    -0.10600
H1006       H  0.44877454  0.79598905  0.87659083     0.09080
H1007       H  0.44488799  0.81266477  0.76977863     0.06610
H1008       H  0.41587373  0.88697838  0.83302011     0.06460
O1009       O  0.02726123  0.91472471  0.51502628    -0.79760
O1010       O  0.42610176  0.96374256  0.66890339    -0.81320
O1011       O  0.03054690  0.93216784  0.62933857    -0.78340
O1012       O  0.44057713  0.87877444  0.59752139    -0.76720
O1013       O  0.39876675  0.89318408  0.56471386    -0.78510
O1014       O  0.05175624  0.98522423  0.61845530    -0.79450
O1015       O  0.45583207  0.91956050  0.65643991    -0.80770
O1016       O  0.01532453  0.89217432  0.56882933    -0.81060
Eu1017     Eu  0.47944864  0.92801684  0.59891064     2.39200
O1018       O  0.42672231  0.94929605  0.59818505    -0.88570
O1019       O  0.01699059  0.96327051  0.56329763    -0.92170
C1020       C  0.02947487  0.89216218  0.53905189     1.02520
C1021       C  0.43766799  0.93535888  0.67633089     1.02330
C1022       C  0.05247736  0.95570113  0.63231565     1.02280
C1023       C  0.41349509  0.87240854  0.58343763     1.00140
H1024       H  0.48775350  0.98028555  0.64031759     0.29890
O1025       O  0.48062671  0.98109468  0.61792141    -1.00960
H1026       H  0.46125797  0.90913200  0.53687830     0.29920
O1027       O  0.46157934  0.93080489  0.54462238    -1.03500
O1028       O  0.39849264  0.55410228  0.61063263    -0.80730
O1029       O  0.50282156  0.00506408  0.95814364    -0.80260
O1030       O  0.01102640  0.54720170  0.63155239    -0.78700
O1031       O  0.35804995  0.94910909  0.58413538    -0.82040
O1032       O  0.41540209  0.92262919  0.49193647    -0.79900
O1033       O  0.06900319  0.51608922  0.54433795    -0.78540
O1034       O  0.48514380  0.58868000  0.52612899    -0.80070
O1035       O  0.39676078  0.53519309  0.49604143    -0.81990
O1036       O  0.02662442  0.57296965  0.55810748    -0.78730
O1037       O  0.37399522  0.98249902  0.50701745    -0.81400
O1038       O  0.45759727  0.53666172  0.65310602    -0.77140
O1039       O  0.05655624  0.98604647  0.50098909    -0.77170
O1040       O  0.46978964  0.93211846  0.97341288    -0.76820
O1041       O  0.37102653  0.97935020  0.62718686    -0.80310
O1042       O  0.41108966  0.57416147  0.55646115    -0.79740
O1043       O  0.47171401  0.54847868  0.96971149    -0.78060
Eu1044     Eu  0.42767886  0.00202951  0.61743554     2.39770
Eu1045     Eu  0.49879771  0.96623252  0.50914507     2.39570
Eu1046     Eu  0.01754635  0.51627780  0.58172815     2.38400
Eu1047     Eu  0.40820584  0.95094627  0.54411240     2.39880
Eu1048     Eu  0.44700083  0.53895443  0.52696987     2.39790
O1049       O  0.44544186  0.98616236  0.50783056    -0.92480
O1050       O  0.46465154  0.53726134  0.58144039    -0.91370
C1051       C  0.39658943  0.57595732  0.58561871     1.02690
C1052       C  0.49130152  0.53337560  0.95048116     1.01410
C1053       C  0.48690649  0.55045776  0.65359703     1.00800
C1054       C  0.35117713  0.96079536  0.61257536     1.02810
C1055       C  0.44054219  0.91947792  0.97086367     1.01730
C1056       C  0.07643668  0.00377390  0.51641329     1.00580
C1057       C  0.01272341  0.59443766  0.53933897     1.00630
C1058       C  0.37448578  0.51208999  0.49291013     1.03250
H1059       H  0.01527070  0.53281990  0.51329266     0.30620
O1060       O  0.49977011  0.51853039  0.52787104    -1.04640
H1061       H  0.38737410  0.51195353  0.56316733     0.32670
O1062       O  0.40936321  0.00393087  0.56302289    -1.07200
C1063       C  0.40719407  0.86959408  0.74462669    -0.11900
C1064       C  0.42907161  0.87613341  0.76881185     0.05100
C1065       C  0.45030648  0.90509428  0.76428787    -0.07190
C1066       C  0.44989645  0.92608145  0.73490127    -0.07930
C1067       C  0.42948490  0.91845138  0.70977756    -0.02490
C1068       C  0.40700129  0.89032190  0.71492999     0.04330
N1069       N  0.38436668  0.88199140  0.69046039     0.66840
H1070       H  0.39075548  0.84759508  0.74871290     0.15740
H1071       H  0.46757615  0.94714722  0.73041479     0.15450
N1072       N  0.47391199  0.91247411  0.78797687     0.74540
O1073       O  0.36142181  0.85988478  0.69799964    -0.38910
O1074       O  0.38626836  0.89710140  0.66164633    -0.38850
O1075       O  0.49050768  0.89009652  0.80087466    -0.39560
O1076       O  0.48137787  0.94199999  0.79267122    -0.39620
C1077       C  0.46046577  0.87781386  0.89165852    -0.11900
C1078       C  0.43200921  0.85747008  0.89004626     0.05100
C1079       C  0.40517230  0.85781864  0.91461643    -0.07190
C1080       C  0.40827778  0.87847789  0.94073164    -0.07930
C1081       C  0.43678125  0.89949271  0.94194387    -0.02490
C1082       C  0.46274062  0.89957484  0.91616494     0.04330
N1083       N  0.49070274  0.92301089  0.91288042     0.66840
H1084       H  0.48032001  0.87857948  0.87194930     0.15740
H1085       H  0.38835148  0.87811262  0.96024025     0.15450
N1086       N  0.37475876  0.83813691  0.91325757     0.74540
O1087       O  0.01961251  0.91344732  0.90789706    -0.38910
O1088       O  0.48614257  0.95334707  0.90860723    -0.38850
O1089       O  0.37409585  0.81293939  0.89725702    -0.39560
O1090       O  0.34852138  0.84506805  0.92937881    -0.39620
C1091       C  0.02589197  0.60556932  0.71463376    -0.11900
C1092       C  0.99783549  0.61137080  0.73533149     0.05100
C1093       C  0.46653701  0.59753706  0.72895098    -0.07190
C1094       C  0.46415630  0.57830977  0.70205838    -0.07930
C1095       C  0.49217376  0.57163661  0.68144179    -0.02490
C1096       C  0.02358237  0.58560145  0.68805203     0.04330
N1097       N  0.05355507  0.57844125  0.66959651     0.66840
H1098       H  0.05007234  0.61508188  0.72040939     0.15740
H1099       H  0.43980649  0.56828539  0.69750900     0.15450
N1100       N  0.43714965  0.60126496  0.75036393     0.74540
O1101       O  0.07451278  0.60155997  0.65872931    -0.38910
O1102       O  0.06206850  0.54915179  0.67016979    -0.38850
O1103       O  0.43176063  0.62848969  0.76161596    -0.39560
O1104       O  0.41483100  0.57823298  0.75537450    -0.39620
C1105       C  0.02633326  0.59768916  0.88199843    -0.11900
C1106       C  0.00540208  0.59125377  0.85688647     0.05100
C1107       C  0.48297227  0.56318600  0.86151293    -0.07190
C1108       C  0.48157348  0.54278868  0.89140422    -0.07930
C1109       C  0.50082714  0.55050283  0.91736946    -0.02490
C1110       C  0.02417085  0.57802365  0.91258212     0.04330
N1111       N  0.04524453  0.58699915  0.93817332     0.66840
H1112       H  0.04353732  0.61913174  0.87813510     0.15740
H1113       H  0.46319953  0.52228063  0.89554495     0.15450
N1114       N  0.45936978  0.55666161  0.83766005     0.74540
O1115       O  0.07031365  0.60667978  0.93073124    -0.38910
O1116       O  0.03824436  0.57701124  0.96849476    -0.38850
O1117       O  0.45228869  0.52743511  0.83163440    -0.39560
O1118       O  0.44177777  0.57919270  0.82683268    -0.39620
C1119       C  0.99686941  0.73073269  0.78951422    -0.11900
C1120       C  0.48147559  0.70302490  0.80870121     0.05100
C1121       C  0.45551038  0.70753016  0.83318340    -0.07190
C1122       C  0.44597339  0.73940246  0.83793816    -0.07930
C1123       C  0.46105194  0.76709874  0.81852278    -0.02490
C1124       C  0.48740225  0.76270294  0.79437183     0.04330
N1125       N  0.50565090  0.79026583  0.77554536     0.66840
H1126       H  0.01723016  0.72750123  0.77132433     0.15740
H1127       H  0.42546667  0.74246379  0.85602489     0.15450
N1128       N  0.43748740  0.68009568  0.85238652     0.74540
O1129       O  0.01334189  0.81575444  0.78952073    -0.38910
O1130       O  0.51744972  0.78776227  0.74603299    -0.38850
O1131       O  0.42798054  0.68213377  0.88266448    -0.39560
O1132       O  0.42771179  0.65535830  0.83828394    -0.39620
C1133       C  0.16721954  0.50145953  0.98651365    -0.11900
C1134       C  0.16793427  0.52130937  0.95604186     0.05100
C1135       C  0.13945974  0.53767645  0.94788147    -0.07190
C1136       C  0.11052158  0.53205620  0.96913524    -0.07930
C1137       C  0.10937958  0.51155006  0.99899516    -0.02490
C1138       C  0.13819537  0.99608926  0.50827833     0.04330
N1139       N  0.13832342  0.97379978  0.53819450     0.66840
H1140       H  0.18898452  0.98853513  0.99241879     0.15740
H1141       H  0.08835312  0.54340034  0.96199123     0.15450
N1142       N  0.13944946  0.55985606  0.91813965     0.74540
O1143       O  0.16542880  0.96482633  0.54841820    -0.38910
O1144       O  0.11169189  0.96131238  0.55348084    -0.38850
O1145       O  0.11424768  0.56062592  0.90151586    -0.39560
O1146       O  0.16362266  0.58041155  0.90975206    -0.39620
C1147       C  0.29832923  0.54767728  0.95740651    -0.11900
C1148       C  0.29064799  0.52454204  0.93477012     0.05100
C1149       C  0.31274173  0.49953368  0.92931049    -0.07190
C1150       C  0.34098944  0.49772615  0.94723897    -0.07930
C1151       C  0.34725782  0.51929815  0.97156355    -0.02490
C1152       C  0.32579321  0.54490660  0.97666560     0.04330
N1153       N  0.32973056  0.56655351  0.50269847     0.66840
H1154       H  0.28147581  0.56684173  0.96170011     0.15740
H1155       H  0.35727967  0.97793320  0.94357003     0.15450
N1156       N  0.30575706  0.97416967  0.90789577     0.74540
O1157       O  0.31839111  0.59475723  0.50010541    -0.38910
O1158       O  0.33988601  0.55602966  0.53029820    -0.38850
O1159       O  0.32864389  0.46511914  0.88839592    -0.39560
O1160       O  0.27858236  0.95720838  0.91233927    -0.39620
C1161       C  0.11152146  0.96721972  0.63904207    -0.11900
C1162       C  0.08183068  0.94959269  0.65150691     0.05100
C1163       C  0.08073684  0.93102509  0.68305031    -0.07190
C1164       C  0.10940607  0.93066644  0.70096219    -0.07930
C1165       C  0.13889467  0.94843401  0.68807280    -0.02490
C1166       C  0.13954757  0.96764562  0.65709539     0.04330
N1167       N  0.16799741  0.98884452  0.64423530     0.66840
H1168       H  0.11254725  0.98225561  0.61542297     0.15740
H1169       H  0.10883528  0.91607069  0.72480663     0.15450
N1170       N  0.05081601  0.91368972  0.69794035     0.74540
O1171       O  0.17536914  0.99362253  0.61311896    -0.38910
O1172       O  0.18328474  0.00597919  0.66346508    -0.38850
O1173       O  0.03687555  0.89154712  0.68300671    -0.39560
O1174       O  0.04199451  0.91598873  0.72833077    -0.39620
C1175       C  0.25914281  0.95282073  0.64033399    -0.11900
C1176       C  0.26006376  0.94194055  0.67451250     0.05100
C1177       C  0.29067099  0.93324409  0.68632533    -0.07190
C1178       C  0.31963919  0.93975585  0.66515129    -0.07930
C1179       C  0.31891797  0.95183346  0.63150964    -0.02490
C1180       C  0.28810258  0.95741151  0.61850096     0.04330
N1181       N  0.28566841  0.96975441  0.58422227     0.66840
H1182       H  0.23603622  0.95994706  0.63084067     0.15740
H1183       H  0.34318037  0.93543180  0.67516207     0.15450
N1184       N  0.29275398  0.91736817  0.71936339     0.74540
O1185       O  0.26013268  0.96239158  0.56964064    -0.38910
O1186       O  0.30716313  0.99059090  0.56947854    -0.38850
O1187       O  0.27094217  0.89549040  0.73140921    -0.39560
O1188       O  0.31834843  0.92205998  0.73480189    -0.39620
C1189       C  0.20633450  0.50904320  0.78425508    -0.11900
C1190       C  0.20743561  0.97500473  0.78212085     0.05100
C1191       C  0.21310229  0.95423201  0.81093972    -0.07190
C1192       C  0.21820946  0.96849105  0.84076631    -0.07930
C1193       C  0.21748814  0.50247778  0.84290130    -0.02490
C1194       C  0.21100874  0.52334734  0.81435659     0.04330
N1195       N  0.20916310  0.55856398  0.81504357     0.66840
H1196       H  0.20183622  0.52451511  0.76200663     0.15740
H1197       H  0.22273388  0.95284676  0.86291026     0.15450
N1198       N  0.21292835  0.91886523  0.81103743     0.74540
O1199       O  0.20539870  0.57641821  0.78854239    -0.38910
O1200       O  0.21069921  0.57219308  0.84185695    -0.38850
O1201       O  0.21935576  0.90529025  0.78456659    -0.39560
O1202       O  0.20754980  0.90085513  0.83822051    -0.39620
C1203       C  0.35735647  0.60830358  0.61983608    -0.11900
C1204       C  0.37634772  0.60518881  0.58961752     0.05100
C1205       C  0.37521301  0.63017905  0.56292184    -0.07190
C1206       C  0.35527412  0.65640590  0.56666473    -0.07930
C1207       C  0.33757172  0.66021716  0.59692179    -0.02490
C1208       C  0.33831663  0.63592073  0.62426194     0.04330
N1209       N  0.32069870  0.63878058  0.65635383     0.66840
H1210       H  0.35797871  0.58944343  0.64035049     0.15740
H1211       H  0.35536577  0.67545514  0.54611349     0.15450
N1212       N  0.39625964  0.63122615  0.53266093     0.74540
O1213       O  0.31945916  0.61535294  0.67911499    -0.38910
O1214       O  0.30666016  0.66463462  0.66255674    -0.38850
O1215       O  0.38378109  0.63335788  0.50481361    -0.39560
O1216       O  0.42692428  0.63778472  0.53358665    -0.39620
C1217       C  0.38196283  0.78570023  0.57025517    -0.11900
C1218       C  0.35642016  0.78037205  0.59597193     0.05100
C1219       C  0.35196903  0.80391698  0.61917086    -0.07190
C1220       C  0.37219283  0.83310286  0.61492291    -0.07930
C1221       C  0.39725931  0.83904655  0.58881635    -0.02490
C1222       C  0.40239772  0.81497066  0.56589360     0.04330
N1223       N  0.42691054  0.81989651  0.53762371     0.66840
H1224       H  0.38476661  0.76747411  0.55242974     0.15740
H1225       H  0.36760079  0.85181507  0.63159421     0.15450
N1226       N  0.32698564  0.79874725  0.64679149     0.74540
O1227       O  0.43491819  0.79590218  0.52165487    -0.38910
O1228       O  0.43934686  0.84817749  0.52709059    -0.38850
O1229       O  0.31971846  0.77025232  0.66102623    -0.39560
O1230       O  0.31421465  0.82297426  0.65901792    -0.39620
C1231       C  0.05174621  0.63491418  0.55899966    -0.11900
C1232       C  0.03090552  0.62740149  0.53396580     0.05100
C1233       C  0.03171270  0.64960982  0.50457545    -0.07190
C1234       C  0.05460443  0.67725933  0.00087922    -0.07930
C1235       C  0.07603145  0.68364993  0.52578647    -0.02490
C1236       C  0.07392552  0.66225426  0.55526524     0.04330
N1237       N  0.09282934  0.66879246  0.58274884     0.66840
H1238       H  0.05094751  0.61925393  0.58224889     0.15740
H1239       H  0.05540587  0.69422353  0.97857205     0.15450
N1240       N  0.01020815  0.64495912  0.97830241     0.74540
O1241       O  0.08244955  0.68857677  0.60289763    -0.38910
O1242       O  0.11459038  0.64942427  0.59121045    -0.38850
O1243       O  0.47942487  0.63984731  0.98521145    -0.39560
O1244       O  0.02053384  0.65373522  0.94833425    -0.39620
C1245       C  0.09731943  0.83500983  0.51641671    -0.11900
C1246       C  0.08123024  0.80420944  0.52740820     0.05100
C1247       C  0.04781147  0.80308951  0.54103863    -0.07190
C1248       C  0.03147566  0.83223196  0.54232871    -0.07930
C1249       C  0.04773616  0.86292091  0.53209357    -0.02490
C1250       C  0.08122723  0.86443863  0.51895169     0.04330
N1251       N  0.10004402  0.89520157  0.51027494     0.66840
H1252       H  0.12278427  0.83627794  0.50588792     0.15740
H1253       H  0.50605796  0.83102465  0.55310480     0.15450
N1254       N  0.03060961  0.77310766  0.55584744     0.74540
O1255       O  0.12978114  0.89818807  0.51748734    -0.38910
O1256       O  0.08914505  0.91734836  0.49095983    -0.38850
O1257       O  0.04364227  0.75512490  0.57773321    -0.39560
O1258       O  0.50073211  0.76686155  0.05045444    -0.39620
C1259       C  0.21805930  0.72127290  0.59190916    -0.11900
C1260       C  0.24603293  0.73276905  0.57074973     0.05100
C1261       C  0.24175906  0.74946004  0.53910895    -0.07190
C1262       C  0.20945688  0.75361683  0.52942649    -0.07930
C1263       C  0.18154774  0.74158222  0.55045532    -0.02490
C1264       C  0.18588845  0.72614145  0.58250893     0.04330
N1265       N  0.15804773  0.71671009  0.60626196     0.66840
H1266       H  0.22140650  0.70947509  0.61648916     0.15740
H1267       H  0.20601584  0.76532478  0.00483468     0.15450
N1268       N  0.26963417  0.76135041  0.51616724     0.74540
O1269       O  0.15957296  0.69292609  0.62819642    -0.38910
O1270       O  0.13414642  0.73514930  0.60874167    -0.38850
O1271       O  0.29530043  0.74525227  0.51377053    -0.39560
O1272       O  0.26739666  0.78628247  0.49580812    -0.39620
C1273       C  0.59981393  0.27380286  0.52529123     0.03500
C1274       C  0.63261153  0.27293661  0.03470186    -0.12650
C1275       C  0.64820988  0.24309742  0.03768186     0.01000
C1276       C  0.63065592  0.21392691  0.03180906    -0.11180
C1277       C  0.59779451  0.21437566  0.52288356     0.03490
C1278       C  0.58368645  0.24464138  0.51708970    -0.10600
H1279       H  0.64538121  0.29497204  0.04163285     0.09110
H1280       H  0.64204740  0.19067636  0.03583749     0.06610
H1281       H  0.55868471  0.24501393  0.50935057     0.06460
C1282       C  0.82262458  0.19218227  0.09882830     0.03500
C1283       C  0.79031807  0.19642335  0.08945893    -0.12650
C1284       C  0.77923943  0.22822869  0.08305700     0.01000
C1285       C  0.80051412  0.25568399  0.08684040    -0.11180
C1286       C  0.83288439  0.25153127  0.09596295     0.03490
C1287       C  0.84371144  0.21983290  0.10204220    -0.10600
H1288       H  0.77458935  0.17515564  0.08522705     0.09080
H1289       H  0.79232152  0.28025752  0.08144557     0.06610
H1290       H  0.86919319  0.21667525  0.10756552     0.06460
C1291       C  0.66975448  0.44575452  0.20545723     0.03500
C1292       C  0.67240752  0.45733067  0.23706236    -0.12650
C1293       C  0.70377615  0.46219245  0.24919404     0.01000
C1294       C  0.73230631  0.45693937  0.22885717    -0.11180
C1295       C  0.72990974  0.44392913  0.19781176     0.03490
C1296       C  0.69831479  0.43697696  0.18726486    -0.10600
H1297       H  0.65048335  0.46403641  0.25135373     0.09080
H1298       H  0.75633446  0.46371281  0.23715464     0.06610
H1299       H  0.69588442  0.42737373  0.16327083     0.06460
C1300       C  0.75764055  0.02457695  0.42074452     0.03500
C1301       C  0.75368191  0.01945214  0.38706818    -0.12650
C1302       C  0.72184771  0.01423329  0.37612865     0.01000
C1303       C  0.69397167  0.01532590  0.39863570    -0.11180
C1304       C  0.69748204  0.02201853  0.43184701     0.03490
C1305       C  0.72931267  0.02650206  0.44263593    -0.10600
H1306       H  0.77522865  0.01774700  0.36985695     0.09080
H1307       H  0.66955159  0.00978138  0.39052172     0.06610
H1308       H  0.73198108  0.03013906  0.46865296     0.06460
C1309       C  0.50232529  0.12577111  0.26717049     0.03500
C1310       C  0.49562020  0.15863650  0.27128379    -0.12650
C1311       C  0.49341509  0.16983975  0.30343619     0.01000
C1312       C  0.49980599  0.14819830  0.33099286    -0.11180
C1313       C  0.50583117  0.11521838  0.32705752     0.03490
C1314       C  0.50808227  0.10449060  0.29498336    -0.10600
H1315       H  0.48968188  0.17461209  0.24992049     0.09080
H1316       H  0.49778871  0.15642622  0.35588132     0.06610
H1317       H  0.51205211  0.07887419  0.29190252     0.06460
C1318       C  0.92977320  0.34194567  0.35856411     0.03500
C1319       C  0.94200684  0.31083621  0.35480257    -0.12650
C1320       C  0.94739622  0.29980654  0.32273815     0.01000
C1321       C  0.94043116  0.32050322  0.29464608    -0.11180
C1322       C  0.92973779  0.35215698  0.29833533     0.03490
C1323       C  0.92329546  0.36219198  0.33028090    -0.10600
H1324       H  0.94877448  0.29598931  0.37659110     0.09080
H1325       H  0.94488790  0.31266500  0.26977889     0.06610
H1326       H  0.91587340  0.38697853  0.33302036     0.06460
O1327       O  0.52725999  0.41472371  0.01502794    -0.79760
O1328       O  0.92610148  0.46374260  0.16890342    -0.81320
O1329       O  0.53054533  0.43216573  0.12934035    -0.78340
O1330       O  0.94057683  0.37877452  0.09752136    -0.76720
O1331       O  0.89876641  0.39318410  0.06471388    -0.78510
O1332       O  0.55175446  0.48522227  0.11845779    -0.79450
O1333       O  0.95583172  0.41956051  0.15643988    -0.80770
O1334       O  0.51532312  0.39217300  0.06883090    -0.81060
Eu1335     Eu  0.97944821  0.42801696  0.09891057     2.39200
O1336       O  0.92672183  0.44929605  0.09818510    -0.88570
O1337       O  0.51698904  0.46326919  0.06329944    -0.92170
C1338       C  0.52947360  0.39216104  0.03905348     1.02520
C1339       C  0.93766768  0.43535891  0.17633091     1.02330
C1340       C  0.55247574  0.45569900  0.13231775     1.02280
C1341       C  0.91349479  0.37240858  0.08343764     1.00140
H1342       H  0.98775317  0.48028568  0.14031736     0.29890
O1343       O  0.98062638  0.48109482  0.11792120    -1.00960
H1344       H  0.96125764  0.40913224  0.03687826     0.29920
O1345       O  0.96157898  0.43080512  0.04462232    -1.03500
O1346       O  0.89849309  0.05410268  0.11063270    -0.80730
O1347       O  0.00282067  0.50506407  0.45814378    -0.80260
O1348       O  0.51102669  0.04720134  0.13155227    -0.78700
O1349       O  0.85804956  0.44910911  0.08413554    -0.82040
O1350       O  0.91540180  0.42262909  0.99193647    -0.79900
O1351       O  0.56900345  0.01608912  0.04433764    -0.78540
O1352       O  0.98514394  0.08867964  0.02612825    -0.80070
O1353       O  0.89676047  0.03519296  0.99604153    -0.81990
O1354       O  0.52662489  0.07296917  0.05810711    -0.78730
O1355       O  0.87399461  0.48249906  0.00701771    -0.81400
O1356       O  0.95759786  0.03666239  0.15310602    -0.77140
O1357       O  0.55655497  0.48604557  0.00099117    -0.77170
O1358       O  0.96978908  0.43211882  0.47341332    -0.76820
O1359       O  0.87102617  0.47935032  0.12718693    -0.80310
O1360       O  0.91108937  0.07416147  0.05646104    -0.79740
O1361       O  0.97171151  0.04847700  0.46970878    -0.78060
Eu1362     Eu  0.92767852  0.50202956  0.11743553     2.39770
Eu1363     Eu  0.99879733  0.46623272  0.00914497     2.39570
Eu1364     Eu  0.51754670  0.01627739  0.08172813     2.38400
Eu1365     Eu  0.90820542  0.45094630  0.04411241     2.39880
Eu1366     Eu  0.94700036  0.03895432  0.02696995     2.39790
O1367       O  0.94544144  0.48616242  0.00783057    -0.92480
O1368       O  0.96465182  0.03726202  0.08144039    -0.91370
C1369       C  0.89658954  0.07595752  0.08561870     1.02690
C1370       C  0.99129878  0.03337373  0.45047839     1.01410
C1371       C  0.98690715  0.05045834  0.15359696     1.00800
C1372       C  0.85117674  0.46079545  0.11257550     1.02810
C1373       C  0.94054166  0.41947811  0.47086419     1.01730
C1374       C  0.57643516  0.50377306  0.01641550     1.00580
C1375       C  0.51272394  0.09443720  0.03933854     1.00630
C1376       C  0.87448560  0.01208981  0.99291018     1.03250
H1377       H  0.51527143  0.03281991  0.01329213     0.30620
O1378       O  0.99977157  0.01853169  0.02786959    -1.04640
H1379       H  0.88737355  0.01195362  0.06316765     0.32670
O1380       O  0.90936298  0.50393090  0.06302285    -1.07200
C1381       C  0.90719377  0.36959420  0.24462691    -0.11900
C1382       C  0.92907133  0.37613356  0.26881206     0.05100
C1383       C  0.95030625  0.40509439  0.26428798    -0.07190
C1384       C  0.94989625  0.42608150  0.23490131    -0.07930
C1385       C  0.92948465  0.41845141  0.20977763    -0.02490
C1386       C  0.90700100  0.39032196  0.21493015     0.04330
N1387       N  0.88436632  0.38199144  0.19046062     0.66840
H1388       H  0.89075516  0.34759522  0.24871318     0.15740
H1389       H  0.96757597  0.44714724  0.23041477     0.15450
N1390       N  0.97391178  0.41247425  0.28797695     0.74540
O1391       O  0.86142154  0.35988474  0.19799989    -0.38910
O1392       O  0.88626784  0.39710153  0.16164660    -0.38850
O1393       O  0.99050740  0.39009666  0.30087484    -0.39560
O1394       O  0.98137776  0.44200015  0.29267115    -0.39620
C1395       C  0.96046534  0.37781415  0.39165891    -0.11900
C1396       C  0.93200886  0.35747028  0.39004660     0.05100
C1397       C  0.90517194  0.35781872  0.41461681    -0.07190
C1398       C  0.90827736  0.37847794  0.44073208    -0.07930
C1399       C  0.93678077  0.39949285  0.44194437    -0.02490
C1400       C  0.96274013  0.39957508  0.41616540     0.04330
N1401       N  0.99070218  0.42301120  0.41288090     0.66840
H1402       H  0.98031959  0.37857988  0.37194969     0.15740
H1403       H  0.88835105  0.37811259  0.46024070     0.15450
N1404       N  0.87475846  0.33813690  0.41325791     0.74540
O1405       O  0.51961242  0.41344718  0.40789694    -0.38910
O1406       O  0.98614192  0.45334735  0.40860764    -0.38850
O1407       O  0.87409562  0.31293946  0.39725725    -0.39560
O1408       O  0.84852106  0.34506791  0.42937921    -0.39620
C1409       C  0.52589219  0.10556908  0.21463350    -0.11900
C1410       C  0.49783572  0.11137048  0.23533126     0.05100
C1411       C  0.96653839  0.09753843  0.22895048    -0.07190
C1412       C  0.96415742  0.07831099  0.20205802    -0.07930
C1413       C  0.99217472  0.07163740  0.18144150    -0.02490
C1414       C  0.52358260  0.08560125  0.18805175     0.04330
N1415       N  0.55355531  0.07844116  0.16959616     0.66840
H1416       H  0.55007256  0.11508166  0.22040913     0.15740
H1417       H  0.93980752  0.06828678  0.19750871     0.15450
N1418       N  0.93715112  0.10126663  0.25036340     0.74540
O1419       O  0.57451292  0.10155996  0.15872893    -0.38910
O1420       O  0.56206887  0.04915175  0.17016946    -0.38850
O1421       O  0.93176220  0.12849154  0.26161508    -0.39560
O1422       O  0.91483232  0.07823479  0.25537411    -0.39620
C1423       C  0.52633368  0.09768879  0.38199811    -0.11900
C1424       C  0.50540243  0.09125331  0.35688625     0.05100
C1425       C  0.98297244  0.06318665  0.36151046    -0.07190
C1426       C  0.98157228  0.04278838  0.39140114    -0.07930
C1427       C  0.00082510  0.05050136  0.41736732    -0.02490
C1428       C  0.52417126  0.07802349  0.41258192     0.04330
N1429       N  0.54524496  0.08699922  0.43817300     0.66840
H1430       H  0.54353778  0.11913134  0.37813462     0.15740
H1431       H  0.96319801  0.02228056  0.39554061     0.15450
N1432       N  0.95937067  0.05666367  0.33765651     0.74540
O1433       O  0.57031405  0.10667985  0.43073075    -0.38910
O1434       O  0.53824467  0.07701175  0.46849453    -0.38850
O1435       O  0.95229024  0.02743771  0.33162864    -0.39560
O1436       O  0.94177844  0.07919515  0.32683047    -0.39620
C1437       C  0.49686953  0.23073226  0.28951433    -0.11900
C1438       C  0.98147666  0.20302556  0.30870117     0.05100
C1439       C  0.95551137  0.20753049  0.33318341    -0.07190
C1440       C  0.94597401  0.23940267  0.33793829    -0.07930
C1441       C  0.96105226  0.26709913  0.31852297    -0.02490
C1442       C  0.98740263  0.26270365  0.29437196     0.04330
N1443       N  0.00565099  0.29026674  0.27554553     0.66840
H1444       H  0.51723021  0.22750092  0.27132431     0.15740
H1445       H  0.92546724  0.24246374  0.35602504     0.15450
N1446       N  0.93748866  0.18009579  0.35238643     0.74540
O1447       O  0.51334160  0.31575412  0.28952103    -0.38910
O1448       O  0.01744971  0.28776339  0.24603309    -0.38850
O1449       O  0.92798167  0.18213372  0.38266438    -0.39560
O1450       O  0.92771335  0.15535837  0.33828376    -0.39620
C1451       C  0.66721983  0.00145936  0.48651382    -0.11900
C1452       C  0.66793463  0.02130930  0.45604210     0.05100
C1453       C  0.63946020  0.03767658  0.44788178    -0.07190
C1454       C  0.61052201  0.03205640  0.46913554    -0.07930
C1455       C  0.60937991  0.01155009  0.49899536    -0.02490
C1456       C  0.63819378  0.49608885  0.00828034     0.04330
N1457       N  0.63832192  0.47379918  0.03819634     0.66840
H1458       H  0.68898464  0.48853519  0.49241924     0.15740
H1459       H  0.58835362  0.04340071  0.46199159     0.15450
N1460       N  0.63945004  0.05985629  0.41814002     0.74540
O1461       O  0.66542735  0.46482584  0.04842000    -0.38910
O1462       O  0.61169044  0.46131119  0.05348230    -0.38850
O1463       O  0.61424832  0.06062628  0.40151616    -0.39560
O1464       O  0.66362337  0.08041164  0.40975247    -0.39620
C1465       C  0.79832953  0.04767760  0.45740626    -0.11900
C1466       C  0.79064832  0.02454230  0.43476992     0.05100
C1467       C  0.81274218  0.99953407  0.42931018    -0.07190
C1468       C  0.84098996  0.99772670  0.44723852    -0.07930
C1469       C  0.84725830  0.01929870  0.47156309    -0.02490
C1470       C  0.82579359  0.04490707  0.47666524     0.04330
N1471       N  0.82973059  0.06655356  0.00269819     0.66840
H1472       H  0.78147602  0.06684197  0.46169990     0.15740
H1473       H  0.85727922  0.47793318  0.44357062     0.15450
N1474       N  0.80575664  0.47416962  0.40789631     0.74540
O1475       O  0.81839123  0.09475731  0.00010499    -0.38910
O1476       O  0.83988595  0.05602977  0.03029798    -0.38850
O1477       O  0.82864435  0.96511949  0.38839565    -0.39560
O1478       O  0.77858193  0.45720833  0.41233984    -0.39620
C1479       C  0.61151999  0.46721744  0.13904330    -0.11900
C1480       C  0.58182937  0.44959035  0.15150859     0.05100
C1481       C  0.58073602  0.43102290  0.18305205    -0.07190
C1482       C  0.60940555  0.43066458  0.20096354    -0.07930
C1483       C  0.63889391  0.44843238  0.18807375    -0.02490
C1484       C  0.63954630  0.46764379  0.15709629     0.04330
N1485       N  0.66799575  0.48884310  0.14423591     0.66840
H1486       H  0.61254542  0.48225325  0.11542418     0.15740
H1487       H  0.60883515  0.41606901  0.22480805     0.15450
N1488       N  0.55081541  0.41368743  0.19794256     0.74540
O1489       O  0.67536721  0.49362110  0.11311953    -0.38910
O1490       O  0.68328286  0.50597822  0.16346548    -0.38850
O1491       O  0.53687413  0.39154550  0.18300870    -0.39560
O1492       O  0.54199479  0.41598576  0.22833331    -0.39620
C1493       C  0.75914240  0.45282072  0.14033432    -0.11900
C1494       C  0.76006342  0.44194078  0.17451289     0.05100
C1495       C  0.79067072  0.43324456  0.18632575    -0.07190
C1496       C  0.81963888  0.43975623  0.16515161    -0.07930
C1497       C  0.81891759  0.45183357  0.13150988    -0.02490
C1498       C  0.78810215  0.45741147  0.11850123     0.04330
N1499       N  0.78566790  0.46975419  0.08422250     0.66840
H1500       H  0.73603575  0.45994687  0.13084100     0.15740
H1501       H  0.84318009  0.43543231  0.17516237     0.15450
N1502       N  0.79275386  0.41736901  0.21936394     0.74540
O1503       O  0.76013215  0.46239123  0.06964097    -0.38910
O1504       O  0.80716257  0.49059066  0.06947864    -0.38850
O1505       O  0.77094202  0.39549143  0.23141018    -0.39560
O1506       O  0.81834841  0.42206098  0.23480224    -0.39620
C1507       C  0.70633473  0.00904338  0.28425525    -0.11900
C1508       C  0.70743498  0.47500457  0.28212127     0.05100
C1509       C  0.71310149  0.45423177  0.31094017    -0.07190
C1510       C  0.71820876  0.46849082  0.34076675    -0.07930
C1511       C  0.71748820  0.00247770  0.34290147    -0.02490
C1512       C  0.71100905  0.02334740  0.31435678     0.04330
N1513       N  0.70916380  0.05856407  0.31504381     0.66840
H1514       H  0.70183667  0.02451540  0.26200680     0.15740
H1515       H  0.72273304  0.45284654  0.36291075     0.15450
N1516       N  0.71292745  0.41886495  0.31103789     0.74540
O1517       O  0.70540006  0.07641846  0.28854256    -0.38910
O1518       O  0.71069950  0.07219303  0.34185731    -0.38850
O1519       O  0.71935294  0.40528983  0.28456676    -0.39560
O1520       O  0.70755038  0.40085491  0.33822115    -0.39620
C1521       C  0.85735666  0.10830371  0.11983603    -0.11900
C1522       C  0.87634790  0.10518900  0.08961748     0.05100
C1523       C  0.87521317  0.13017923  0.06292178    -0.07190
C1524       C  0.85527423  0.15640604  0.06666469    -0.07930
C1525       C  0.83757180  0.16021722  0.09692177    -0.02490
C1526       C  0.83831676  0.13592079  0.12426190     0.04330
N1527       N  0.82069880  0.13878056  0.15635379     0.66840
H1528       H  0.85797893  0.08944355  0.14035042     0.15740
H1529       H  0.85536584  0.17545529  0.04611347     0.15450
N1530       N  0.89625977  0.13122633  0.03266083     0.74540
O1531       O  0.81945935  0.11535290  0.17911493    -0.38910
O1532       O  0.80666012  0.16463452  0.16255670    -0.38850
O1533       O  0.88378117  0.13335817  0.00481353    -0.39560
O1534       O  0.92692444  0.13778476  0.03358650    -0.39620
C1535       C  0.88196272  0.28570022  0.07025528    -0.11900
C1536       C  0.85642011  0.28037201  0.09597210     0.05100
C1537       C  0.85196901  0.30391691  0.11917107    -0.07190
C1538       C  0.87219272  0.33310283  0.11492305    -0.07930
C1539       C  0.89725909  0.33904658  0.08881639    -0.02490
C1540       C  0.90239753  0.31497070  0.06589366     0.04330
N1541       N  0.92691031  0.31989658  0.03762372     0.66840
H1542       H  0.88476649  0.26747411  0.05242984     0.15740
H1543       H  0.86760071  0.35181503  0.13159438     0.15450
N1544       N  0.82698571  0.29874709  0.14679177     0.74540
O1545       O  0.93491804  0.29590225  0.02165493    -0.38910
O1546       O  0.93934650  0.34817759  0.02709053    -0.38850
O1547       O  0.81971865  0.27025214  0.16102651    -0.39560
O1548       O  0.81421466  0.32297405  0.15901823    -0.39620
C1549       C  0.55174679  0.13491375  0.05899919    -0.11900
C1550       C  0.53090608  0.12740104  0.03396535     0.05100
C1551       C  0.53171311  0.14960947  0.00457509    -0.07190
C1552       C  0.55460466  0.17725928  0.50087918    -0.07930
C1553       C  0.57603184  0.18364963  0.02578607    -0.02490
C1554       C  0.57392598  0.16225393  0.05526481     0.04330
N1555       N  0.59282972  0.16879224  0.08274844     0.66840
H1556       H  0.55094816  0.11925347  0.08224839     0.15740
H1557       H  0.55540603  0.19422350  0.47857203     0.15450
N1558       N  0.51020835  0.14495904  0.47830244     0.74540
O1559       O  0.58244974  0.18857640  0.10289730    -0.38910
O1560       O  0.61459099  0.14942426  0.09120996    -0.38850
O1561       O  0.97942612  0.13984803  0.48520843    -0.39560
O1562       O  0.52053398  0.15373510  0.44833425    -0.39620
C1563       C  0.59731875  0.33500947  0.01641773    -0.11900
C1564       C  0.58122990  0.30420889  0.02740905     0.05100
C1565       C  0.54781121  0.30308854  0.04103977    -0.07190
C1566       C  0.53147510  0.33223079  0.04233026    -0.07930
C1567       C  0.54773522  0.36291993  0.03209517    -0.02490
C1568       C  0.58122625  0.36443804  0.01895305     0.04330
N1569       N  0.60004271  0.39520118  0.01027638     0.66840
H1570       H  0.62278355  0.33627789  0.00588876     0.15740
H1571       H  0.00605785  0.33102483  0.05310480     0.15450
N1572       N  0.53060972  0.27310642  0.05584837     0.74540
O1573       O  0.62977980  0.39818797  0.01748879    -0.38910
O1574       O  0.58914361  0.41734776  0.99096113    -0.38850
O1575       O  0.54364274  0.25512353  0.07773376    -0.39560
O1576       O  0.00073284  0.26686197  0.55045444    -0.39620
C1577       C  0.71805934  0.22127290  0.09190915    -0.11900
C1578       C  0.74603301  0.23276900  0.07074975     0.05100
C1579       C  0.74175920  0.24945991  0.03910892    -0.07190
C1580       C  0.70945705  0.25361668  0.02942637    -0.07930
C1581       C  0.68154788  0.24158213  0.05045519    -0.02490
C1582       C  0.68588852  0.22614143  0.08250885     0.04330
N1583       N  0.65804777  0.21671011  0.10626184     0.66840
H1584       H  0.72140650  0.20947514  0.11648918     0.15740
H1585       H  0.70601598  0.26532479  0.50483470     0.15450
N1586       N  0.76963438  0.26135023  0.01616726     0.74540
O1587       O  0.65957299  0.19292620  0.12819640    -0.38910
O1588       O  0.63414641  0.23514928  0.10874142    -0.38850
O1589       O  0.79530065  0.24525211  0.01377067    -0.39560
O1590       O  0.76739693  0.28628229  0.99580811    -0.39620
C1591       C  0.59981381  0.27380247  0.02529140     0.03500
C1592       C  0.63261161  0.27293695  0.53470183    -0.12650
C1593       C  0.64820988  0.24309772  0.53768205     0.01000
C1594       C  0.63065589  0.21392721  0.53180931    -0.11180
C1595       C  0.59779450  0.21437532  0.02288339     0.03490
C1596       C  0.58368637  0.24464103  0.01708972    -0.10600
H1597       H  0.64538134  0.29497240  0.54163272     0.09110
H1598       H  0.64204731  0.19067664  0.53583784     0.06610
H1599       H  0.55868459  0.24501357  0.00935070     0.06460
C1600       C  0.82262455  0.19218225  0.59882835     0.03500
C1601       C  0.79031804  0.19642335  0.58945898    -0.12650
C1602       C  0.77923939  0.22822870  0.58305712     0.01000
C1603       C  0.80051407  0.25568398  0.58684061    -0.11180
C1604       C  0.83288434  0.25153125  0.59596317     0.03490
C1605       C  0.84371139  0.21983287  0.60204234    -0.10600
H1606       H  0.77458933  0.17515566  0.58522703     0.09080
H1607       H  0.79232147  0.28025753  0.58144583     0.06610
H1608       H  0.86919314  0.21667521  0.60756566     0.06460
C1609       C  0.66975412  0.44575576  0.70545721     0.03500
C1610       C  0.67240662  0.45733192  0.73706238    -0.12650
C1611       C  0.70377502  0.46219379  0.74919452     0.01000
C1612       C  0.73230549  0.45694087  0.72885804    -0.11180
C1613       C  0.72990945  0.44393050  0.69781261     0.03490
C1614       C  0.69831468  0.43697811  0.68726534    -0.10600
H1615       H  0.65048222  0.46403751  0.75135350     0.09080
H1616       H  0.75633344  0.46371444  0.73715589     0.06610
H1617       H  0.69588461  0.42737464  0.66327138     0.06460
C1618       C  0.75764052  0.02457711  0.92074438     0.03500
C1619       C  0.75368195  0.01945235  0.88706802    -0.12650
C1620       C  0.72184779  0.01423347  0.87612841     0.01000
C1621       C  0.69397169  0.01532605  0.89863541    -0.11180
C1622       C  0.69748196  0.02201864  0.93184676     0.03490
C1623       C  0.72931258  0.02650218  0.94263574    -0.10600
H1624       H  0.77522873  0.01774723  0.86985682     0.09080
H1625       H  0.66955165  0.00978151  0.89052136     0.06610
H1626       H  0.73198095  0.03013915  0.96865279     0.06460
C1627       C  0.50232506  0.12577148  0.76717040     0.03500
C1628       C  0.49562003  0.15863691  0.77128371    -0.12650
C1629       C  0.49341482  0.16984013  0.80343613     0.01000
C1630       C  0.49980555  0.14819859  0.83099280    -0.11180
C1631       C  0.50583063  0.11521865  0.82705744     0.03490
C1632       C  0.50808183  0.10449091  0.79498328    -0.10600
H1633       H  0.48968184  0.17461253  0.74992038     0.09080
H1634       H  0.49778827  0.15642649  0.85588127     0.06610
H1635       H  0.51205165  0.07887449  0.79190243     0.06460
C1636       C  0.92977331  0.34194551  0.85856404     0.03500
C1637       C  0.94200697  0.31083607  0.85480246    -0.12650
C1638       C  0.94739625  0.29980640  0.82273802     0.01000
C1639       C  0.94043107  0.32050306  0.79464599    -0.11180
C1640       C  0.92973766  0.35215679  0.79833529     0.03490
C1641       C  0.92329541  0.36219178  0.83028087    -0.10600
H1642       H  0.94877472  0.29598919  0.87659095     0.09080
H1643       H  0.94488777  0.31266485  0.76977879     0.06610
H1644       H  0.91587333  0.38697832  0.83302036     0.06460
O1645       O  0.52726094  0.41472472  0.51502650    -0.79760
O1646       O  0.92610133  0.46374261  0.66890368    -0.81320
O1647       O  0.53054613  0.43216737  0.62933885    -0.78340
O1648       O  0.94057682  0.37877443  0.59752178    -0.76720
O1649       O  0.89876627  0.39318402  0.56471443    -0.78510
O1650       O  0.55175568  0.48522369  0.61845537    -0.79450
O1651       O  0.95583148  0.41956044  0.65644016    -0.80770
O1652       O  0.51532388  0.39217403  0.56882942    -0.81060
Eu1653     Eu  0.97944822  0.42801684  0.59891095     2.39200
O1654       O  0.92672198  0.44929622  0.59818534    -0.88570
O1655       O  0.51698989  0.46327035  0.56329788    -0.92170
C1656       C  0.52947439  0.39216203  0.53905203     1.02520
C1657       C  0.93766744  0.43535887  0.67633114     1.02330
C1658       C  0.55247666  0.45570060  0.63231586     1.02280
C1659       C  0.91349474  0.37240850  0.58343811     1.00140
H1660       H  0.98775313  0.48028547  0.64031818     0.29890
O1661       O  0.98062633  0.48109461  0.61792198    -1.00960
H1662       H  0.96125730  0.40913171  0.53687869     0.29920
O1663       O  0.96157867  0.43080464  0.54462275    -1.03500
O1664       O  0.89849310  0.05410263  0.61063257    -0.80730
O1665       O  0.00282062  0.50506402  0.95814325    -0.80260
O1666       O  0.51102664  0.04720172  0.63155206    -0.78700
O1667       O  0.85804945  0.44910913  0.58413640    -0.82040
O1668       O  0.91540135  0.42262896  0.49193686    -0.79900
O1669       O  0.56900380  0.01608929  0.54433779    -0.78540
O1670       O  0.98514396  0.08867992  0.52612837    -0.80070
O1671       O  0.89676069  0.03519301  0.49604143    -0.81990
O1672       O  0.52662474  0.07296989  0.55810745    -0.78730
O1673       O  0.87399447  0.48249892  0.50701798    -0.81400
O1674       O  0.95759794  0.03666233  0.65310591    -0.77140
O1675       O  0.55655616  0.48604596  0.50098953    -0.77170
O1676       O  0.96978951  0.43211916  0.97341287    -0.76820
O1677       O  0.87102625  0.47935056  0.62718758    -0.80310
O1678       O  0.91108957  0.07416155  0.55646095    -0.79740
O1679       O  0.97171177  0.04847716  0.96970909    -0.78060
Eu1680     Eu  0.92767854  0.50202966  0.61743590     2.39770
Eu1681     Eu  0.99879699  0.46623228  0.50914536     2.39570
Eu1682     Eu  0.51754682  0.01627795  0.58172772     2.38400
Eu1683     Eu  0.90820515  0.45094619  0.54411287     2.39880
Eu1684     Eu  0.94700067  0.03895446  0.52696978     2.39790
O1685       O  0.94544111  0.48616224  0.50783081    -0.92480
O1686       O  0.96465190  0.03726190  0.58144024    -0.91370
C1687       C  0.89658962  0.07595752  0.58561859     1.02690
C1688       C  0.99129906  0.03337391  0.95047867     1.01410
C1689       C  0.98690721  0.05045832  0.65359681     1.00800
C1690       C  0.85117675  0.46079560  0.61257634     1.02810
C1691       C  0.94054212  0.41947830  0.97086381     1.01730
C1692       C  0.57643656  0.50377338  0.51641374     1.00580
C1693       C  0.51272373  0.09443790  0.53933895     1.00630
C1694       C  0.87448581  0.01208984  0.49291012     1.03250
H1695       H  0.51527091  0.03281963  0.51329279     0.30620
O1696       O  0.99977151  0.01853165  0.52786965    -1.04640
H1697       H  0.88737394  0.01195362  0.56316745     0.32670
O1698       O  0.90936251  0.50393085  0.56302336    -1.07200
C1699       C  0.90719343  0.36959421  0.74462703    -0.11900
C1700       C  0.92907117  0.37613340  0.76881207     0.05100
C1701       C  0.95030619  0.40509416  0.76428800    -0.07190
C1702       C  0.94989613  0.42608135  0.73490142    -0.07930
C1703       C  0.92948437  0.41845142  0.70977783    -0.02490
C1704       C  0.90700057  0.39032209  0.71493036     0.04330
N1705       N  0.88436566  0.38199182  0.69046094     0.66840
H1706       H  0.89075473  0.34759529  0.74871332     0.15740
H1707       H  0.96757595  0.44714702  0.73041484     0.15450
N1708       N  0.97391184  0.41247388  0.78797689     0.74540
O1709       O  0.86142090  0.35988510  0.69800022    -0.38910
O1710       O  0.88626684  0.39710225  0.66164710    -0.38850
O1711       O  0.99050744  0.39009620  0.80087465    -0.39560
O1712       O  0.98137792  0.44199974  0.79267117    -0.39620
C1713       C  0.96046565  0.37781395  0.89165872    -0.11900
C1714       C  0.93200910  0.35747015  0.89004648     0.05100
C1715       C  0.90517222  0.35781872  0.91461670    -0.07190
C1716       C  0.90827773  0.37847802  0.94073190    -0.07930
C1717       C  0.93678119  0.39949288  0.94194409    -0.02490
C1718       C  0.96274053  0.39957496  0.91616514     0.04330
N1719       N  0.99070264  0.42301101  0.91288055     0.66840
H1720       H  0.98031986  0.37857958  0.87194948     0.15740
H1721       H  0.88835143  0.37811277  0.96024051     0.15450
N1722       N  0.87475869  0.33813695  0.91325789     0.74540
O1723       O  0.51961144  0.41344796  0.90789732    -0.38910
O1724       O  0.98614246  0.45334717  0.90860717    -0.38850
O1725       O  0.87409579  0.31293943  0.89725734    -0.39560
O1726       O  0.84852131  0.34506808  0.92937913    -0.39620
C1727       C  0.52589205  0.10556934  0.71463348    -0.11900
C1728       C  0.49783555  0.11137084  0.73533115     0.05100
C1729       C  0.96653848  0.09753836  0.72895040    -0.07190
C1730       C  0.96415748  0.07831092  0.70205793    -0.07930
C1731       C  0.99217478  0.07163733  0.68144140    -0.02490
C1732       C  0.52358250  0.08560142  0.68805178     0.04330
N1733       N  0.55355523  0.07844120  0.66959632     0.66840
H1734       H  0.55007242  0.11508191  0.72040914     0.15740
H1735       H  0.93980757  0.06828674  0.69750862     0.15450
N1736       N  0.93715121  0.10126661  0.75036332     0.74540
O1737       O  0.57451293  0.10155991  0.65872907    -0.38910
O1738       O  0.56206866  0.04915174  0.67016966    -0.38850
O1739       O  0.93176235  0.12849152  0.76161501    -0.39560
O1740       O  0.91483239  0.07823479  0.75537406    -0.39620
C1741       C  0.52633371  0.09768910  0.88199765    -0.11900
C1742       C  0.50540213  0.09125358  0.85688615     0.05100
C1743       C  0.98297242  0.06318660  0.86151058    -0.07190
C1744       C  0.98157231  0.04278845  0.89140137    -0.07930
C1745       C  0.00082527  0.05050151  0.91736747    -0.02490
C1746       C  0.52417169  0.07802392  0.91258151     0.04330
N1747       N  0.54524577  0.08699997  0.93817209     0.66840
H1748       H  0.54353777  0.11913168  0.87813387     0.15740
H1749       H  0.96319801  0.02228066  0.89554097     0.15450
N1750       N  0.95937061  0.05666355  0.83765668     0.74540
O1751       O  0.57031507  0.10668017  0.93072916    -0.38910
O1752       O  0.53824504  0.07701401  0.96849394    -0.38850
O1753       O  0.95229030  0.02743759  0.83162875    -0.39560
O1754       O  0.94177843  0.07919502  0.82683052    -0.39620
C1755       C  0.49686946  0.23073269  0.78951426    -0.11900
C1756       C  0.98147681  0.20302547  0.80870106     0.05100
C1757       C  0.95551151  0.20753038  0.83318330    -0.07190
C1758       C  0.94597412  0.23940255  0.83793816    -0.07930
C1759       C  0.96105232  0.26709901  0.81852282    -0.02490
C1760       C  0.98740269  0.26270355  0.79437180     0.04330
N1761       N  0.00565099  0.29026665  0.77554534     0.66840
H1762       H  0.51723018  0.22750129  0.77132431     0.15740
H1763       H  0.92546735  0.24246361  0.85602492     0.15450
N1764       N  0.93748883  0.18009568  0.85238635     0.74540
O1765       O  0.51334180  0.31575449  0.78952093    -0.38910
O1766       O  0.01744974  0.28776329  0.74603291    -0.38850
O1767       O  0.92798185  0.18213362  0.88266430    -0.39560
O1768       O  0.92771351  0.15535824  0.83828369    -0.39620
C1769       C  0.66721961  0.00145943  0.98651355    -0.11900
C1770       C  0.66793445  0.02130936  0.95604182     0.05100
C1771       C  0.63946000  0.03767660  0.94788148    -0.07190
C1772       C  0.61052175  0.03205640  0.96913521    -0.07930
C1773       C  0.60937961  0.01155010  0.99899505    -0.02490
C1774       C  0.63819524  0.49608909  0.50827874     0.04330
N1775       N  0.63832341  0.47379969  0.53819495     0.66840
H1776       H  0.68898316  0.48853489  0.99242079     0.15740
H1777       H  0.58835335  0.04340073  0.96199125     0.15450
N1778       N  0.63944990  0.05985630  0.91813972     0.74540
O1779       O  0.66542886  0.46482652  0.54841871    -0.38910
O1780       O  0.61169194  0.46131202  0.55348119    -0.38850
O1781       O  0.61424828  0.06062618  0.90151571    -0.39560
O1782       O  0.66362324  0.08041165  0.90975220    -0.39620
C1783       C  0.79832946  0.04767771  0.95740618    -0.11900
C1784       C  0.79064827  0.02454244  0.93476981     0.05100
C1785       C  0.81274214  0.99953421  0.92931008    -0.07190
C1786       C  0.84098987  0.99772679  0.94723849    -0.07930
C1787       C  0.84725815  0.01929872  0.97156311    -0.02490
C1788       C  0.82579349  0.04490713  0.97666522     0.04330
N1789       N  0.82973070  0.06655350  0.50269821     0.66840
H1790       H  0.78147597  0.06684210  0.96169980     0.15740
H1791       H  0.85727868  0.47793328  0.94357063     0.15450
N1792       N  0.80575552  0.47416927  0.90789715     0.74540
O1793       O  0.81839129  0.09475722  0.50010504    -0.38910
O1794       O  0.83988610  0.05602971  0.53029798    -0.38850
O1795       O  0.82864443  0.96511967  0.88839555    -0.39560
O1796       O  0.77858090  0.45720785  0.91234092    -0.39620
C1797       C  0.61152076  0.46721906  0.63904231    -0.11900
C1798       C  0.58182996  0.44959207  0.65150716     0.05100
C1799       C  0.58073614  0.43102448  0.68305059    -0.07190
C1800       C  0.60940535  0.43066598  0.70096252    -0.07930
C1801       C  0.63889389  0.44843368  0.68807318    -0.02490
C1802       C  0.63954680  0.46764513  0.65709568     0.04330
N1803       N  0.66799653  0.48884419  0.64423564     0.66840
H1804       H  0.61254657  0.48225489  0.61542316     0.15740
H1805       H  0.60883456  0.41607034  0.72480703     0.15450
N1806       N  0.55081536  0.41368897  0.69794062     0.74540
O1807       O  0.67536851  0.49362193  0.61311933    -0.38910
O1808       O  0.68328337  0.50597935  0.66346536    -0.38850
O1809       O  0.53687487  0.39154650  0.68300684    -0.39560
O1810       O  0.54199401  0.41598765  0.72833113    -0.39620
C1811       C  0.75914243  0.45282107  0.64033526    -0.11900
C1812       C  0.76006341  0.44194204  0.67451408     0.05100
C1813       C  0.79067078  0.43324642  0.68632727    -0.07190
C1814       C  0.81963893  0.43975760  0.66515295    -0.07930
C1815       C  0.81891761  0.45183396  0.63151091    -0.02490
C1816       C  0.78810216  0.45741138  0.61850214     0.04330
N1817       N  0.78566787  0.46975325  0.58422317     0.66840
H1818       H  0.73603581  0.45994689  0.63084166     0.15740
H1819       H  0.84318018  0.43543413  0.67516384     0.15450
N1820       N  0.79275412  0.41737210  0.71936599     0.74540
O1821       O  0.76013230  0.46238947  0.56964172    -0.38910
O1822       O  0.80716219  0.49058991  0.56947902    -0.38850
O1823       O  0.77094190  0.39549546  0.73141360    -0.39560
O1824       O  0.81834894  0.42206447  0.73480378    -0.39620
C1825       C  0.70633482  0.00904326  0.78425500    -0.11900
C1826       C  0.70743325  0.47500507  0.78212221     0.05100
C1827       C  0.71309878  0.45423164  0.81094113    -0.07190
C1828       C  0.71820617  0.46849046  0.84076791    -0.07930
C1829       C  0.71748841  0.00247781  0.84290122    -0.02490
C1830       C  0.71100905  0.02334739  0.81435651     0.04330
N1831       N  0.70916343  0.05856403  0.81504351     0.66840
H1832       H  0.70183655  0.02451518  0.76200654     0.15740
H1833       H  0.72272980  0.45284603  0.86291201     0.15450
N1834       N  0.71292402  0.41886463  0.81103869     0.74540
O1835       O  0.70539888  0.07641825  0.78854236    -0.38910
O1836       O  0.71069977  0.07219315  0.84185685    -0.38850
O1837       O  0.71934026  0.40528893  0.78456612    -0.39560
O1838       O  0.70755346  0.40085476  0.83822270    -0.39620
C1839       C  0.85735667  0.10830367  0.61983598    -0.11900
C1840       C  0.87634791  0.10518898  0.58961741     0.05100
C1841       C  0.87521315  0.13017923  0.56292175    -0.07190
C1842       C  0.85527420  0.15640603  0.56666469    -0.07930
C1843       C  0.83757178  0.16021719  0.59692178    -0.02490
C1844       C  0.83831676  0.13592074  0.62426189     0.04330
N1845       N  0.82069881  0.13878048  0.65635379     0.66840
H1846       H  0.85797896  0.08944349  0.64035036     0.15740
H1847       H  0.85536580  0.17545530  0.54611349     0.15450
N1848       N  0.89625974  0.13122637  0.53266079     0.74540
O1849       O  0.81945937  0.11535281  0.67911491    -0.38910
O1850       O  0.80666012  0.16463443  0.66255673    -0.38850
O1851       O  0.88378114  0.13335820  0.50481349    -0.39560
O1852       O  0.92692441  0.13778483  0.53358646    -0.39620
C1853       C  0.88196263  0.28570024  0.57025554    -0.11900
C1854       C  0.85642006  0.28037198  0.59597238     0.05100
C1855       C  0.85196901  0.30391680  0.61917145    -0.07190
C1856       C  0.87219280  0.33310268  0.61492355    -0.07930
C1857       C  0.89725909  0.33904649  0.58881683    -0.02490
C1858       C  0.90239747  0.31497070  0.56589399     0.04330
N1859       N  0.92691021  0.31989664  0.53762403     0.66840
H1860       H  0.88476637  0.26747419  0.55243003     0.15740
H1861       H  0.86760092  0.35181479  0.63159502     0.15450
N1862       N  0.82698569  0.29874696  0.64679212     0.74540
O1863       O  0.93491797  0.29590234  0.52165520    -0.38910
O1864       O  0.93934638  0.34817767  0.52709087    -0.38850
O1865       O  0.81971857  0.27025200  0.66102679    -0.39560
O1866       O  0.81421462  0.32297392  0.65901859    -0.39620
C1867       C  0.55174654  0.13491437  0.55899960    -0.11900
C1868       C  0.53090581  0.12740169  0.53396577     0.05100
C1869       C  0.53171301  0.14960993  0.50457537    -0.07190
C1870       C  0.55460468  0.17725889  0.00087896    -0.07930
C1871       C  0.57603182  0.18365002  0.52578630    -0.02490
C1872       C  0.57392592  0.16225438  0.55526509     0.04330
N1873       N  0.59282978  0.16879258  0.58274866     0.66840
H1874       H  0.55094783  0.11925415  0.58224884     0.15740
H1875       H  0.55540595  0.19422320  0.97857188     0.15450
N1876       N  0.51020830  0.14495875  0.97830224     0.74540
O1877       O  0.58244993  0.18857675  0.60289756    -0.38910
O1878       O  0.61459084  0.14942436  0.59121021    -0.38850
O1879       O  0.97942605  0.13984781  0.98520831    -0.39560
O1880       O  0.52053379  0.15373497  0.94833405    -0.39620
C1881       C  0.59731923  0.33500987  0.51641702    -0.11900
C1882       C  0.58123015  0.30420942  0.52740844     0.05100
C1883       C  0.54781136  0.30308935  0.54103882    -0.07190
C1884       C  0.53147540  0.33223175  0.54232887    -0.07930
C1885       C  0.54773578  0.36292077  0.53209374    -0.02490
C1886       C  0.58122690  0.36443860  0.51895198     0.04330
N1887       N  0.60004362  0.39520159  0.51027537     0.66840
H1888       H  0.62278410  0.33627809  0.50588830     0.15740
H1889       H  0.00605782  0.33102462  0.55310515     0.15450
N1890       N  0.53060962  0.27310742  0.55584757     0.74540
O1891       O  0.62978067  0.39818816  0.51748796    -0.38910
O1892       O  0.58914474  0.41734832  0.49096013    -0.38850
O1893       O  0.54364238  0.25512463  0.57773324    -0.39560
O1894       O  0.00073283  0.26686211  0.05045419    -0.39620
C1895       C  0.71805931  0.22127299  0.59190929    -0.11900
C1896       C  0.74603297  0.23276906  0.57074989     0.05100
C1897       C  0.74175918  0.24946002  0.53910907    -0.07190
C1898       C  0.70945703  0.25361687  0.52942656    -0.07930
C1899       C  0.68154786  0.24158238  0.55045539    -0.02490
C1900       C  0.68588849  0.22614161  0.58250902     0.04330
N1901       N  0.65804773  0.21671032  0.60626201     0.66840
H1902       H  0.72140646  0.20947520  0.61648931     0.15740
H1903       H  0.70601600  0.26532457  0.00483450     0.15450
N1904       N  0.76963435  0.26135030  0.51616739     0.74540
O1905       O  0.65957290  0.19292635  0.62819652    -0.38910
O1906       O  0.63414644  0.23514956  0.60874166    -0.38850
O1907       O  0.79530061  0.24525215  0.51377081    -0.39560
O1908       O  0.76739690  0.28628232  0.49580820    -0.39620
C1909       C  0.59981377  0.77380268  0.52529134     0.03500
C1910       C  0.63261090  0.77293604  0.03470230    -0.12650
C1911       C  0.64820920  0.74309686  0.03768278     0.01000
C1912       C  0.63065520  0.71392621  0.03181054    -0.11180
C1913       C  0.59779433  0.71437547  0.52288394     0.03490
C1914       C  0.58368625  0.74464116  0.51708999    -0.10600
H1915       H  0.64538071  0.79497162  0.04163278     0.09110
H1916       H  0.64204673  0.69067571  0.03583918     0.06610
H1917       H  0.55868450  0.74501368  0.50935089     0.06460
C1918       C  0.82262442  0.69218244  0.09882808     0.03500
C1919       C  0.79031788  0.69642343  0.08945879    -0.12650
C1920       C  0.77923917  0.72822873  0.08305679     0.01000
C1921       C  0.80051384  0.75568410  0.08684007    -0.11180
C1922       C  0.83288414  0.75153146  0.09596257     0.03490
C1923       C  0.84371124  0.71983312  0.10204188    -0.10600
H1924       H  0.77458917  0.67515567  0.08522702     0.09080
H1925       H  0.79232118  0.78025761  0.08144522     0.06610
H1926       H  0.86919301  0.71667552  0.10756517     0.06460
C1927       C  0.66975499  0.94575555  0.20545656     0.03500
C1928       C  0.67240796  0.95733160  0.23706173    -0.12650
C1929       C  0.70377653  0.96219282  0.24919368     0.01000
C1930       C  0.73230670  0.95693942  0.22885699    -0.11180
C1931       C  0.72991013  0.94392928  0.19781152     0.03490
C1932       C  0.69831520  0.93697750  0.18726444    -0.10600
H1933       H  0.65048382  0.96403767  0.25135292     0.09080
H1934       H  0.75633486  0.96371258  0.23715461     0.06610
H1935       H  0.69588480  0.92737427  0.16327041     0.06460
C1936       C  0.75764012  0.52457707  0.42074477     0.03500
C1937       C  0.75368152  0.51945219  0.38706844    -0.12650
C1938       C  0.72184735  0.51423321  0.37612890     0.01000
C1939       C  0.69397128  0.51532574  0.39863595    -0.11180
C1940       C  0.69748163  0.52201846  0.43184722     0.03490
C1941       C  0.72931223  0.52650216  0.44263614    -0.10600
H1942       H  0.77522828  0.51774707  0.36985723     0.09080
H1943       H  0.66955123  0.50978106  0.39052198     0.06610
H1944       H  0.73198061  0.53013923  0.46865316     0.06460
C1945       C  0.50232386  0.62577139  0.26717150     0.03500
C1946       C  0.49561888  0.65863682  0.27128465    -0.12650
C1947       C  0.49341430  0.66984033  0.30343693     0.01000
C1948       C  0.49980547  0.64819906  0.33099367    -0.11180
C1949       C  0.50583069  0.61521912  0.32705844     0.03490
C1950       C  0.50808141  0.60449116  0.29498435    -0.10600
H1951       H  0.48968029  0.67461226  0.24992134     0.09080
H1952       H  0.49778839  0.65642714  0.35588207     0.06610
H1953       H  0.51205130  0.57887474  0.29190360     0.06460
C1954       C  0.92977358  0.84194559  0.35856391     0.03500
C1955       C  0.94200717  0.81083612  0.35480237    -0.12650
C1956       C  0.94739644  0.79980641  0.32273795     0.01000
C1957       C  0.94043133  0.82050307  0.29464590    -0.11180
C1958       C  0.92973799  0.85215684  0.29833515     0.03490
C1959       C  0.92329574  0.86219187  0.33028073    -0.10600
H1960       H  0.94877487  0.79598923  0.37659088     0.09080
H1961       H  0.94488802  0.81266483  0.26977871     0.06610
H1962       H  0.91587371  0.88697843  0.33302019     0.06460
O1963       O  0.52726088  0.91472382  0.01502631    -0.79760
O1964       O  0.92610168  0.96374251  0.16890340    -0.81320
O1965       O  0.53054708  0.93216727  0.12933845    -0.78340
O1966       O  0.94057700  0.87877443  0.09752138    -0.76720
O1967       O  0.89876661  0.89318410  0.06471387    -0.78510
O1968       O  0.55175618  0.98522376  0.11845574    -0.79450
O1969       O  0.95583196  0.91956043  0.15643989    -0.80770
O1970       O  0.51532445  0.89217374  0.06882948    -0.81060
Eu1971     Eu  0.97944856  0.92801679  0.09891063     2.39200
O1972       O  0.92672230  0.94929612  0.09818494    -0.88570
O1973       O  0.51699089  0.96326986  0.06329769    -0.92170
C1974       C  0.52947462  0.89216144  0.03905199     1.02520
C1975       C  0.93766789  0.93535883  0.17633088     1.02330
C1976       C  0.55247744  0.95570059  0.13231573     1.02280
C1977       C  0.91349495  0.87240855  0.08343763     1.00140
H1978       H  0.98775342  0.98028543  0.14031780     0.29890
O1979       O  0.98062663  0.98109458  0.11792160    -1.00960
H1980       H  0.96125780  0.90913179  0.03687828     0.29920
O1981       O  0.96157917  0.93080470  0.04462236    -1.03500
O1982       O  0.89849287  0.55410276  0.11063263    -0.80730
O1983       O  0.00282096  0.00506402  0.45814320    -0.80260
O1984       O  0.51102467  0.54720016  0.13155430    -0.78700
O1985       O  0.85804988  0.94910908  0.08413546    -0.82040
O1986       O  0.91540193  0.92262906  0.99193643    -0.79900
O1987       O  0.56900231  0.51608812  0.04434009    -0.78540
O1988       O  0.98514370  0.58867996  0.02612839    -0.80070
O1989       O  0.89675999  0.53519304  0.99604167    -0.81990
O1990       O  0.52662375  0.57296836  0.05810974    -0.78730
O1991       O  0.87399506  0.98249899  0.00701740    -0.81400
O1992       O  0.95759774  0.53666234  0.15310594    -0.77140
O1993       O  0.55655578  0.98604636  0.00098892    -0.77170
O1994       O  0.96978993  0.93211915  0.47341279    -0.76820
O1995       O  0.87102650  0.97935023  0.12718691    -0.80310
O1996       O  0.91108933  0.57416163  0.05646100    -0.79740
O1997       O  0.97171142  0.54847718  0.46970940    -0.78060
Eu1998     Eu  0.92767880  0.00202952  0.11743558     2.39770
Eu1999     Eu  0.99879750  0.96623238  0.00914505     2.39570
Eu2000     Eu  0.51754527  0.51627645  0.08172988     2.38400
Eu2001     Eu  0.90820570  0.95094625  0.04411235     2.39880
Eu2002     Eu  0.94700028  0.53895450  0.02696976     2.39790
O2003       O  0.94544165  0.98616233  0.00783041    -0.92480
O2004       O  0.96465156  0.53726191  0.08144020    -0.91370
C2005       C  0.89658942  0.57595765  0.08561864     1.02690
C2006       C  0.99129870  0.53337391  0.45047898     1.01410
C2007       C  0.98690703  0.55045830  0.15359683     1.00800
C2008       C  0.85117709  0.96079538  0.11257544     1.02810
C2009       C  0.94054254  0.91947829  0.47086372     1.01730
C2010       C  0.57643624  0.00377384  0.01641309     1.00580
C2011       C  0.51272308  0.59443647  0.03934110     1.00630
C2012       C  0.87448504  0.51208987  0.99291052     1.03250
H2013       H  0.51525914  0.53280801  0.01330619     0.30620
O2014       O  0.99977107  0.51853164  0.02786968    -1.04640
H2015       H  0.88737362  0.51195370  0.06316756     0.32670
O2016       O  0.90936294  0.00393082  0.06302297    -1.07200
C2017       C  0.90719395  0.86959410  0.24462676    -0.11900
C2018       C  0.92907152  0.87613342  0.26881191     0.05100
C2019       C  0.95030645  0.90509425  0.26428787    -0.07190
C2020       C  0.94989643  0.92608140  0.23490125    -0.07930
C2021       C  0.92948483  0.91845134  0.20977757    -0.02490
C2022       C  0.90700118  0.89032190  0.21493004     0.04330
N2023       N  0.88436651  0.88199141  0.19046048     0.66840
H2024       H  0.89075534  0.84759512  0.24871301     0.15740
H2025       H  0.96757615  0.94714715  0.23041472     0.15450
N2026       N  0.97391200  0.91247408  0.28797682     0.74540
O2027       O  0.86142168  0.85988476  0.19799973    -0.38910
O2028       O  0.88626809  0.89710149  0.16164645    -0.38850
O2029       O  0.99050768  0.89009647  0.30087460    -0.39560
O2030       O  0.98137793  0.94199996  0.29267113    -0.39620
C2031       C  0.96046595  0.87781405  0.39165856    -0.11900
C2032       C  0.93200939  0.85747024  0.39004635     0.05100
C2033       C  0.90517254  0.85781880  0.41461659    -0.07190
C2034       C  0.90827809  0.87847806  0.44073181    -0.07930
C2035       C  0.93678157  0.89949292  0.44194399    -0.02490
C2036       C  0.96274087  0.89957502  0.41616500     0.04330
N2037       N  0.99070297  0.92301109  0.41288040     0.66840
H2038       H  0.98032015  0.87857969  0.37194930     0.15740
H2039       H  0.88835182  0.87811281  0.46024044     0.15450
N2040       N  0.87475898  0.83813706  0.41325779     0.74540
O2041       O  0.51961250  0.91344760  0.40789689    -0.38910
O2042       O  0.98614276  0.95334725  0.40860708    -0.38850
O2043       O  0.87409604  0.81293957  0.39725721    -0.39560
O2044       O  0.84852163  0.84506821  0.42937906    -0.39620
C2045       C  0.52589024  0.60556883  0.21463465    -0.11900
C2046       C  0.49783392  0.61137046  0.23533248     0.05100
C2047       C  0.96653837  0.59753822  0.22895051    -0.07190
C2048       C  0.96415736  0.57831082  0.20205802    -0.07930
C2049       C  0.99217464  0.57163725  0.18144145    -0.02490
C2050       C  0.52358048  0.58560064  0.18805325     0.04330
N2051       N  0.55355307  0.57844041  0.16959757     0.66840
H2052       H  0.55007067  0.61508155  0.22040996     0.15740
H2053       H  0.93980744  0.56828666  0.19750871     0.15450
N2054       N  0.93715112  0.60126646  0.25036346     0.74540
O2055       O  0.57451024  0.60155923  0.15872928    -0.38910
O2056       O  0.56206700  0.54915108  0.17017166    -0.38850
O2057       O  0.93176227  0.62849137  0.26161517    -0.39560
O2058       O  0.91483230  0.57823464  0.25537419    -0.39620
C2059       C  0.52633319  0.59768937  0.38199919    -0.11900
C2060       C  0.50540201  0.59125403  0.35688718     0.05100
C2061       C  0.98297207  0.56318651  0.36151081    -0.07190
C2062       C  0.98157193  0.54278841  0.39140165    -0.07930
C2063       C  0.00082490  0.55050148  0.41736773    -0.02490
C2064       C  0.52417091  0.57802360  0.41258273     0.04330
N2065       N  0.54524455  0.58699885  0.43817409     0.66840
H2066       H  0.54353714  0.61913204  0.37813603     0.15740
H2067       H  0.96319759  0.52228065  0.39554128     0.15450
N2068       N  0.95937027  0.55666345  0.33765691     0.74540
O2069       O  0.57031363  0.60667961  0.43073223    -0.38910
O2070       O  0.53824467  0.57701020  0.46849539    -0.38850
O2071       O  0.95228996  0.52743749  0.33162897    -0.39560
O2072       O  0.94177814  0.57919493  0.32683067    -0.39620
C2073       C  0.49686915  0.73073277  0.28951466    -0.11900
C2074       C  0.98147678  0.70302538  0.30870110     0.05100
C2075       C  0.95551149  0.70753037  0.33318332    -0.07190
C2076       C  0.94597416  0.73940256  0.33793814    -0.07930
C2077       C  0.96105244  0.76709899  0.31852278    -0.02490
C2078       C  0.98740280  0.76270346  0.29437179     0.04330
N2079       N  0.00565116  0.79026651  0.27554531     0.66840
H2080       H  0.51722988  0.72750119  0.27132479     0.15740
H2081       H  0.92546739  0.74246368  0.35602488     0.15450
N2082       N  0.93748873  0.68009572  0.35238637     0.74540
O2083       O  0.51334174  0.81575455  0.28952086    -0.38910
O2084       O  0.01744989  0.78776310  0.24603288    -0.38850
O2085       O  0.92798173  0.68213370  0.38266431    -0.39560
O2086       O  0.92771337  0.65535828  0.33828373    -0.39620
C2087       C  0.66721968  0.50145933  0.48651416    -0.11900
C2088       C  0.66793426  0.52130911  0.45604233     0.05100
C2089       C  0.63945967  0.53767607  0.44788194    -0.07190
C2090       C  0.61052159  0.53205575  0.46913576    -0.07930
C2091       C  0.60937974  0.51154969  0.49899570    -0.02490
C2092       C  0.63819506  0.99608926  0.00827805     0.04330
N2093       N  0.63832316  0.97379975  0.03819418     0.66840
H2094       H  0.68898467  0.98853502  0.49241887     0.15740
H2095       H  0.58835306  0.54339974  0.46199173     0.15450
N2096       N  0.63944924  0.55985555  0.41814005     0.74540
O2097       O  0.66542858  0.96482641  0.04841790    -0.38910
O2098       O  0.61169166  0.96131217  0.05348042    -0.38850
O2099       O  0.61424746  0.56062515  0.40151626    -0.39560
O2100       O  0.66362229  0.58041120  0.40975241    -0.39620
C2101       C  0.79832897  0.54767765  0.45740666    -0.11900
C2102       C  0.79064782  0.52454240  0.43477025     0.05100
C2103       C  0.81274163  0.49953412  0.42931058    -0.07190
C2104       C  0.84098933  0.49772666  0.44723902    -0.07930
C2105       C  0.84725761  0.51929861  0.47156364    -0.02490
C2106       C  0.82579295  0.54490703  0.47666575     0.04330
N2107       N  0.82972984  0.56655343  0.00269903     0.66840
H2108       H  0.78147550  0.56684205  0.46170026     0.15740
H2109       H  0.85727988  0.97793325  0.44357008     0.15450
N2110       N  0.80575716  0.97416954  0.40789595     0.74540
O2111       O  0.81839045  0.59475717  0.00010585    -0.38910
O2112       O  0.83988562  0.55602980  0.03029867    -0.38850
O2113       O  0.82864383  0.46511964  0.38839597    -0.39560
O2114       O  0.77858242  0.95720830  0.41233946    -0.39620
C2115       C  0.61152155  0.96721924  0.13904192    -0.11900
C2116       C  0.58183081  0.94959217  0.15150684     0.05100
C2117       C  0.58073695  0.93102479  0.18305032    -0.07190
C2118       C  0.60940614  0.93066633  0.20096224    -0.07930
C2119       C  0.63889470  0.94843393  0.18807279    -0.02490
C2120       C  0.63954761  0.96764540  0.15709529     0.04330
N2121       N  0.66799737  0.98884442  0.14423520     0.66840
H2122       H  0.61254730  0.98225503  0.11542275     0.15740
H2123       H  0.60883535  0.91607073  0.22480677     0.15450
N2124       N  0.55081609  0.91368953  0.19794042     0.74540
O2125       O  0.67536914  0.99362240  0.11311886    -0.38910
O2126       O  0.68328461  0.00597919  0.16346497    -0.38850
O2127       O  0.53687555  0.89154691  0.18300687    -0.39560
O2128       O  0.54199445  0.91598884  0.22833075    -0.39620
C2129       C  0.75914280  0.95282073  0.14033412    -0.11900
C2130       C  0.76006379  0.94194079  0.17451270     0.05100
C2131       C  0.79067104  0.93324450  0.18632560    -0.07190
C2132       C  0.81963922  0.93975616  0.16515150    -0.07930
C2133       C  0.81891796  0.95183350  0.13150977    -0.02490
C2134       C  0.78810256  0.95741142  0.11850107     0.04330
N2135       N  0.78566835  0.96975412  0.08422233     0.66840
H2136       H  0.73603621  0.95994695  0.13084075     0.15740
H2137       H  0.84318041  0.93543224  0.17516230     0.15450
N2138       N  0.79275411  0.91736893  0.21936379     0.74540
O2139       O  0.76013267  0.96239107  0.06964073    -0.38910
O2140       O  0.80716297  0.99059069  0.06947853    -0.38850
O2141       O  0.77094221  0.89549141  0.23141001    -0.39560
O2142       O  0.81834862  0.92206088  0.23480216    -0.39620
C2143       C  0.70633442  0.50904314  0.28425550    -0.11900
C2144       C  0.70743531  0.97500483  0.28212096     0.05100
C2145       C  0.71310176  0.95423195  0.31093984    -0.07190
C2146       C  0.71820907  0.96849097  0.34076643    -0.07930
C2147       C  0.71748787  0.50247756  0.34290174    -0.02490
C2148       C  0.71100876  0.52334722  0.31435701     0.04330
N2149       N  0.70916354  0.55856390  0.31504399     0.66840
H2150       H  0.70183636  0.52451513  0.26200703     0.15740
H2151       H  0.72273335  0.95284665  0.36291041     0.15450
N2152       N  0.71292754  0.91886511  0.31103754     0.74540
O2153       O  0.70540001  0.57641829  0.28854268    -0.38910
O2154       O  0.71069907  0.57219288  0.34185750    -0.38850
O2155       O  0.71935241  0.90528993  0.28456633    -0.39560
O2156       O  0.70755070  0.90085509  0.33822084    -0.39620
C2157       C  0.85735646  0.60830387  0.11983594    -0.11900
C2158       C  0.87634778  0.60518915  0.08961742     0.05100
C2159       C  0.87521312  0.63017940  0.06292174    -0.07190
C2160       C  0.85527418  0.65640620  0.06666459    -0.07930
C2161       C  0.83757168  0.66021739  0.09692162    -0.02490
C2162       C  0.83831656  0.63592096  0.12426177     0.04330
N2163       N  0.82069853  0.63878075  0.15635362     0.66840
H2164       H  0.85797868  0.58944369  0.14035034     0.15740
H2165       H  0.85536584  0.67545546  0.04611336     0.15450
N2166       N  0.89625978  0.63122650  0.03266084     0.74540
O2167       O  0.81945895  0.61535307  0.17911474    -0.38910
O2168       O  0.80665994  0.66463476  0.16255652    -0.38850
O2169       O  0.88378126  0.63335824  0.00481350    -0.39560
O2170       O  0.92692445  0.63778495  0.03358658    -0.39620
C2171       C  0.88196249  0.78570040  0.07025495    -0.11900
C2172       C  0.85641984  0.78037222  0.09597172     0.05100
C2173       C  0.85196881  0.80391707  0.11917076    -0.07190
C2174       C  0.87219269  0.83310289  0.11492289    -0.07930
C2175       C  0.89725915  0.83904658  0.08881632    -0.02490
C2176       C  0.90239748  0.81497077  0.06589348     0.04330
N2177       N  0.92691033  0.81989660  0.03762361     0.66840
H2178       H  0.88476621  0.76747434  0.05242945     0.15740
H2179       H  0.86760074  0.85181504  0.13159428     0.15450
N2180       N  0.82698546  0.79874728  0.14679142     0.74540
O2181       O  0.93491798  0.79590227  0.02165478    -0.38910
O2182       O  0.93934670  0.84817757  0.02709053    -0.38850
O2183       O  0.81971825  0.77025233  0.16102607    -0.39560
O2184       O  0.81421456  0.82297427  0.15901798    -0.39620
C2185       C  0.55174708  0.63491231  0.05900096    -0.11900
C2186       C  0.53090556  0.62740004  0.03396767     0.05100
C2187       C  0.53171200  0.64960869  0.00457762    -0.07190
C2188       C  0.55460442  0.67725915  0.50087972    -0.07930
C2189       C  0.57603118  0.68364868  0.02578800    -0.02490
C2190       C  0.57392618  0.66225254  0.05526642     0.04330
N2191       N  0.59283040  0.66879062  0.08274978     0.66840
H2192       H  0.55094901  0.61925181  0.08224997     0.15740
H2193       H  0.55540578  0.69422334  0.47857255     0.15450
N2194       N  0.51020810  0.64495889  0.47830305     0.74540
O2195       O  0.58245188  0.68857636  0.10289764    -0.38910
O2196       O  0.61459021  0.64942136  0.09121227    -0.38850
O2197       O  0.97942601  0.63984785  0.48520853    -0.39560
O2198       O  0.52053379  0.65373485  0.44833486    -0.39620
C2199       C  0.59731882  0.83500875  0.01641688    -0.11900
C2200       C  0.58122952  0.80420846  0.02740859     0.05100
C2201       C  0.54781072  0.80308872  0.04103892    -0.07190
C2202       C  0.53147507  0.83223126  0.04232885    -0.07930
C2203       C  0.54773574  0.86292010  0.03209368    -0.02490
C2204       C  0.58122679  0.86443765  0.01895176     0.04330
N2205       N  0.60004374  0.89520050  0.01027492     0.66840
H2206       H  0.62278365  0.83627672  0.00588807     0.15740
H2207       H  0.00605805  0.83102465  0.05310473     0.15450
N2208       N  0.53060869  0.77310702  0.05584787     0.74540
O2209       O  0.62978091  0.89818684  0.01748719    -0.38910
O2210       O  0.58914478  0.91734740  0.99095994    -0.38850
O2211       O  0.54364110  0.75512448  0.07773400    -0.39560
O2212       O  0.00073303  0.76686208  0.55045408    -0.39620
C2213       C  0.71805917  0.72127266  0.09190940    -0.11900
C2214       C  0.74603264  0.73276891  0.07074980     0.05100
C2215       C  0.74175853  0.74945983  0.03910904    -0.07190
C2216       C  0.70945627  0.75361646  0.02942678    -0.07930
C2217       C  0.68154731  0.74158178  0.05045581    -0.02490
C2218       C  0.68588825  0.72614109  0.08250937     0.04330
N2219       N  0.65804769  0.71670977  0.10626257     0.66840
H2220       H  0.72140654  0.70947491  0.11648938     0.15740
H2221       H  0.70601565  0.76532476  0.50483473     0.15450
N2222       N  0.76963349  0.76135029  0.01616716     0.74540
O2223       O  0.65957286  0.69292547  0.12819670    -0.38910
O2224       O  0.63414674  0.73514936  0.10874287    -0.38850
O2225       O  0.79529984  0.74525230  0.01377037    -0.39560
O2226       O  0.76739572  0.78628224  0.99580797    -0.39620
C2227       C  0.59981315  0.77380177  0.02529188     0.03500
C2228       C  0.63261145  0.77293682  0.53470192    -0.12650
C2229       C  0.64820970  0.74309760  0.53768224     0.01000
C2230       C  0.63065572  0.71392706  0.53180963    -0.11180
C2231       C  0.59779371  0.71437445  0.02288510     0.03490
C2232       C  0.58368558  0.74464011  0.01709095    -0.10600
H2233       H  0.64538120  0.79497231  0.54163268     0.09110
H2234       H  0.64204716  0.69067650  0.53583822     0.06610
H2235       H  0.55868380  0.74501253  0.00935192     0.06460
C2236       C  0.82262443  0.69218248  0.59882832     0.03500
C2237       C  0.79031792  0.69642356  0.58945898    -0.12650
C2238       C  0.77923932  0.72822890  0.58305696     0.01000
C2239       C  0.80051406  0.75568420  0.58684025    -0.11180
C2240       C  0.83288433  0.75153147  0.59596278     0.03490
C2241       C  0.84371133  0.71983310  0.60204212    -0.10600
H2242       H  0.77458916  0.67515584  0.58522718     0.09080
H2243       H  0.79232148  0.78025774  0.58144537     0.06610
H2244       H  0.86919308  0.71667543  0.60756543     0.06460
C2245       C  0.66975505  0.94575541  0.70545650     0.03500
C2246       C  0.67240817  0.95733140  0.73706168    -0.12650
C2247       C  0.70377680  0.96219249  0.74919358     0.01000
C2248       C  0.73230689  0.95693898  0.72885679    -0.11180
C2249       C  0.72991017  0.94392893  0.69781130     0.03490
C2250       C  0.69831518  0.93697731  0.68726427    -0.10600
H2251       H  0.65048411  0.96403758  0.75135292     0.09080
H2252       H  0.75633511  0.96371204  0.73715434     0.06610
H2253       H  0.69588470  0.92737419  0.66327020     0.06460
C2254       C  0.75763877  0.52457645  0.92074614     0.03500
C2255       C  0.75368002  0.51945158  0.88706981    -0.12650
C2256       C  0.72184581  0.51423262  0.87613038     0.01000
C2257       C  0.69396980  0.51532523  0.89863751    -0.11180
C2258       C  0.69748023  0.52201804  0.93184876     0.03490
C2259       C  0.72931092  0.52650164  0.94263759    -0.10600
H2260       H  0.77522672  0.51774650  0.86985850     0.09080
H2261       H  0.66954972  0.50978061  0.89052359     0.06610
H2262       H  0.73197940  0.53013875  0.96865458     0.06460
C2263       C  0.50232308  0.62577036  0.76717118     0.03500
C2264       C  0.49561820  0.65863587  0.77128419    -0.12650
C2265       C  0.49341311  0.66983937  0.80343647     0.01000
C2266       C  0.49980381  0.64819803  0.83099330    -0.11180
C2267       C  0.50582884  0.61521801  0.82705823     0.03490
C2268       C  0.50807973  0.60448993  0.79498422    -0.10600
H2269       H  0.48968014  0.67461139  0.74992073     0.09080
H2270       H  0.49778679  0.65642622  0.85588165     0.06610
H2271       H  0.51204955  0.57887348  0.79190359     0.06460
C2272       C  0.92977339  0.84194562  0.85856395     0.03500
C2273       C  0.94200700  0.81083616  0.85480242    -0.12650
C2274       C  0.94739632  0.79980649  0.82273800     0.01000
C2275       C  0.94043124  0.82050315  0.79464594    -0.11180
C2276       C  0.92973790  0.85215691  0.79833519     0.03490
C2277       C  0.92329559  0.86219192  0.83028076    -0.10600
H2278       H  0.94877468  0.79598928  0.87659093     0.09080
H2279       H  0.94488797  0.81266493  0.76977875     0.06610
H2280       H  0.91587355  0.88697848  0.83302023     0.06460
O2281       O  0.52726111  0.91472452  0.51502637    -0.79760
O2282       O  0.92610177  0.96374255  0.66890335    -0.81320
O2283       O  0.53054693  0.93216774  0.62933861    -0.78340
O2284       O  0.94057717  0.87877449  0.59752135    -0.76720
O2285       O  0.89876681  0.89318409  0.56471378    -0.78510
O2286       O  0.55175622  0.98522414  0.61845544    -0.79450
O2287       O  0.95583213  0.91956053  0.65643987    -0.80770
O2288       O  0.51532446  0.89217418  0.56882943    -0.81060
Eu2289     Eu  0.97944866  0.92801691  0.59891056     2.39200
O2290       O  0.92672227  0.94929601  0.59818499    -0.88570
O2291       O  0.51699065  0.96327038  0.56329774    -0.92170
C2292       C  0.52947475  0.89216202  0.53905198     1.02520
C2293       C  0.93766803  0.93535889  0.67633086     1.02330
C2294       C  0.55247736  0.95570103  0.63231572     1.02280
C2295       C  0.91349514  0.87240857  0.58343758     1.00140
H2296       H  0.98775351  0.98028564  0.64031738     0.29890
O2297       O  0.98062673  0.98109476  0.61792122    -1.00960
H2298       H  0.96125809  0.90913218  0.53687821     0.29920
O2299       O  0.96157943  0.93080506  0.54462228    -1.03500
O2300       O  0.89849286  0.55410285  0.61063299    -0.80730
O2301       O  0.00282109  0.00506410  0.95814346    -0.80260
O2302       O  0.51102598  0.54720139  0.63155219    -0.78700
O2303       O  0.85804997  0.94910905  0.58413525    -0.82040
O2304       O  0.91540222  0.92262906  0.49193640    -0.79900
O2305       O  0.56900374  0.51608886  0.54433812    -0.78540
O2306       O  0.98514371  0.58867959  0.52612845    -0.80070
O2307       O  0.89675996  0.53519285  0.49604194    -0.81990
O2308       O  0.52662435  0.57297003  0.55810813    -0.78730
O2309       O  0.87399528  0.98249903  0.50701734    -0.81400
O2310       O  0.95759771  0.53666248  0.65310628    -0.77140
O2311       O  0.55655617  0.98604642  0.50098916    -0.77170
O2312       O  0.96978967  0.93211892  0.97341292    -0.76820
O2313       O  0.87102652  0.97935015  0.62718675    -0.80310
O2314       O  0.91108902  0.57416152  0.55646128    -0.79740
O2315       O  0.97171113  0.54847700  0.96970876    -0.78060
Eu2316     Eu  0.92767884  0.00202949  0.61743547     2.39770
Eu2317     Eu  0.99879776  0.96623269  0.50914493     2.39570
Eu2318     Eu  0.51754653  0.51627789  0.58172753     2.38400
Eu2319     Eu  0.90820589  0.95094627  0.54411229     2.39880
Eu2320     Eu  0.94699993  0.53895430  0.52697025     2.39790
O2321       O  0.94544189  0.98616242  0.50783052    -0.92480
O2322       O  0.96465153  0.53726212  0.58144066    -0.91370
C2323       C  0.89658926  0.57595764  0.58561895     1.02690
C2324       C  0.99129845  0.53337373  0.95047842     1.01410
C2325       C  0.98690702  0.55045838  0.65359717     1.00800
C2326       C  0.85117712  0.96079531  0.61257524     1.02810
C2327       C  0.94054225  0.91947820  0.97086379     1.01730
C2328       C  0.57643661  0.00377387  0.51641334     1.00580
C2329       C  0.51272336  0.59443806  0.53933969     1.00630
C2330       C  0.87448506  0.51208971  0.49291070     1.03250
H2331       H  0.51526859  0.53281735  0.51329530     0.30620
O2332       O  0.99977119  0.51853167  0.52786982    -1.04640
H2333       H  0.88737312  0.51195367  0.56316809     0.32670
O2334       O  0.90936331  0.00393085  0.56302279    -1.07200
C2335       C  0.90719394  0.86959420  0.74462678    -0.11900
C2336       C  0.92907148  0.87613351  0.76881195     0.05100
C2337       C  0.95030646  0.90509430  0.76428791    -0.07190
C2338       C  0.94989652  0.92608143  0.73490126    -0.07930
C2339       C  0.92948495  0.91845138  0.70977755    -0.02490
C2340       C  0.90700124  0.89032198  0.71493003     0.04330
N2341       N  0.88436661  0.88199151  0.69046045     0.66840
H2342       H  0.89075529  0.84759525  0.74871301     0.15740
H2343       H  0.96757627  0.94714715  0.73041475     0.15450
N2344       N  0.97391197  0.91247410  0.78797691     0.74540
O2345       O  0.86142161  0.85988503  0.69799976    -0.38910
O2346       O  0.88626841  0.89710139  0.66164633    -0.38850
O2347       O  0.99050759  0.89009648  0.80087475    -0.39560
O2348       O  0.98137794  0.94199999  0.79267120    -0.39620
C2349       C  0.96046574  0.87781402  0.89165864    -0.11900
C2350       C  0.93200917  0.85747025  0.89004639     0.05100
C2351       C  0.90517228  0.85781882  0.91461659    -0.07190
C2352       C  0.90827781  0.87847807  0.94073181    -0.07930
C2353       C  0.93678130  0.89949289  0.94194403    -0.02490
C2354       C  0.96274063  0.89957499  0.91616508     0.04330
N2355       N  0.99070276  0.92301103  0.91288052     0.66840
H2356       H  0.98031996  0.87857964  0.87194941     0.15740
H2357       H  0.88835152  0.87811282  0.96024043     0.15450
N2358       N  0.87475873  0.83813710  0.91325775     0.74540
O2359       O  0.51961250  0.91344720  0.90789693    -0.38910
O2360       O  0.98614259  0.95334721  0.90860723    -0.38850
O2361       O  0.87409580  0.81293959  0.89725719    -0.39560
O2362       O  0.84852136  0.84506825  0.92937900    -0.39620
C2363       C  0.52589049  0.60556860  0.71463425    -0.11900
C2364       C  0.49783385  0.61136965  0.73533195     0.05100
C2365       C  0.96653846  0.59753853  0.72895063    -0.07190
C2366       C  0.96415741  0.57831111  0.70205818    -0.07930
C2367       C  0.99217468  0.57163744  0.68144166    -0.02490
C2368       C  0.52358124  0.58560090  0.68805236     0.04330
N2369       N  0.55355409  0.57844117  0.66959682     0.66840
H2370       H  0.55007074  0.61508141  0.72041000     0.15740
H2371       H  0.93980748  0.56828697  0.69750889     0.15450
N2372       N  0.93715121  0.60126681  0.75036357     0.74540
O2373       O  0.57451146  0.60156018  0.65872961    -0.38910
O2374       O  0.56206795  0.54915185  0.67017004    -0.38850
O2375       O  0.93176235  0.62849174  0.76161520    -0.39560
O2376       O  0.91483238  0.57823500  0.75537430    -0.39620
C2377       C  0.52633377  0.59768984  0.88199782    -0.11900
C2378       C  0.50540144  0.59125343  0.85688721     0.05100
C2379       C  0.98297240  0.56318668  0.86151047    -0.07190
C2380       C  0.98157213  0.54278841  0.89140115    -0.07930
C2381       C  0.00082488  0.55050136  0.91736738    -0.02490
C2382       C  0.52417281  0.57802544  0.91258207     0.04330
N2383       N  0.54524773  0.58700242  0.93817160     0.66840
H2384       H  0.54353756  0.61913260  0.87813308     0.15740
H2385       H  0.96319782  0.52228061  0.89554057     0.15450
N2386       N  0.95937067  0.55666377  0.83765647     0.74540
O2387       O  0.57031780  0.60668143  0.93072685    -0.38910
O2388       O  0.53824629  0.57701959  0.96849415    -0.38850
O2389       O  0.95229019  0.52743783  0.83162858    -0.39560
O2390       O  0.94177847  0.57919529  0.82683046    -0.39620
C2391       C  0.49686848  0.73073188  0.78951421    -0.11900
C2392       C  0.98147684  0.70302555  0.80870119     0.05100
C2393       C  0.95551150  0.70753047  0.83318338    -0.07190
C2394       C  0.94597411  0.73940265  0.83793819    -0.07930
C2395       C  0.96105237  0.76709909  0.81852284    -0.02490
C2396       C  0.98740276  0.76270361  0.79437187     0.04330
N2397       N  0.00565110  0.79026668  0.77554541     0.66840
H2398       H  0.51722918  0.72750015  0.77132434     0.15740
H2399       H  0.92546732  0.74246373  0.85602491     0.15450
N2400       N  0.93748878  0.68009578  0.85238640     0.74540
O2401       O  0.51334186  0.81575358  0.78952061    -0.38910
O2402       O  0.01744983  0.78776331  0.74603297    -0.38850
O2403       O  0.92798175  0.68213374  0.88266434    -0.39560
O2404       O  0.92771349  0.65535835  0.83828373    -0.39620
C2405       C  0.66721823  0.50145910  0.98651576    -0.11900
C2406       C  0.66793284  0.52130883  0.95604393     0.05100
C2407       C  0.63945822  0.53767579  0.94788357    -0.07190
C2408       C  0.61052014  0.53205576  0.96913753    -0.07930
C2409       C  0.60937831  0.51154963  0.99899747    -0.02490
C2410       C  0.63819532  0.99608922  0.50827835     0.04330
N2411       N  0.63832337  0.97379971  0.53819449     0.66840
H2412       H  0.68898447  0.98853512  0.99241863     0.15740
H2413       H  0.58835158  0.54339992  0.96199361     0.15450
N2414       N  0.63944773  0.55985484  0.91814143     0.74540
O2415       O  0.66542875  0.96482626  0.54841819    -0.38910
O2416       O  0.61169184  0.96131228  0.55348081    -0.38850
O2417       O  0.61424663  0.56062279  0.90151660    -0.39560
O2418       O  0.66362035  0.58041106  0.90975395    -0.39620
C2419       C  0.79832798  0.54767716  0.95740770    -0.11900
C2420       C  0.79064663  0.52454186  0.93477140     0.05100
C2421       C  0.81274062  0.49953380  0.92931136    -0.07190
C2422       C  0.84098869  0.49772663  0.94723930    -0.07930
C2423       C  0.84725726  0.51929868  0.97156376    -0.02490
C2424       C  0.82579242  0.54490688  0.97666623     0.04330
N2425       N  0.82973005  0.56655344  0.50269873     0.66840
H2426       H  0.78147441  0.56684142  0.96170159     0.15740
H2427       H  0.85727978  0.97793333  0.94357006     0.15450
N2428       N  0.80575718  0.97416972  0.90789578     0.74540
O2429       O  0.81839072  0.59475721  0.50010553    -0.38910
O2430       O  0.83988541  0.55602964  0.53029852    -0.38850
O2431       O  0.82864255  0.46511949  0.88839648    -0.39560
O2432       O  0.77858245  0.95720847  0.91233924    -0.39620
C2433       C  0.61152148  0.96721963  0.63904208    -0.11900
C2434       C  0.58183070  0.94959259  0.65150694     0.05100
C2435       C  0.58073688  0.93102502  0.68305034    -0.07190
C2436       C  0.60940612  0.93066639  0.70096221    -0.07930
C2437       C  0.63889470  0.94843396  0.68807279    -0.02490
C2438       C  0.63954759  0.96764556  0.65709538     0.04330
N2439       N  0.66799741  0.98884449  0.64423528     0.66840
H2440       H  0.61254725  0.98225552  0.61542296     0.15740
H2441       H  0.60883534  0.91607065  0.72480666     0.15450
N2442       N  0.55081605  0.91368967  0.69794040     0.74540
O2443       O  0.67536911  0.99362253  0.61311894    -0.38910
O2444       O  0.68328476  0.00597914  0.66346507    -0.38850
O2445       O  0.53687557  0.89154707  0.68300679    -0.39560
O2446       O  0.54199453  0.91598874  0.72833081    -0.39620
C2447       C  0.75914280  0.95282064  0.64033388    -0.11900
C2448       C  0.76006377  0.94194045  0.67451239     0.05100
C2449       C  0.79067099  0.93324397  0.68632520    -0.07190
C2450       C  0.81963919  0.93975576  0.66515116    -0.07930
C2451       C  0.81891796  0.95183338  0.63150951    -0.02490
C2452       C  0.78810257  0.95741144  0.61850084     0.04330
N2453       N  0.78566839  0.96975437  0.58422216     0.66840
H2454       H  0.73603621  0.95994698  0.63084058     0.15740
H2455       H  0.84318037  0.93543171  0.67516194     0.15450
N2456       N  0.79275399  0.91736802  0.71936324     0.74540
O2457       O  0.76013265  0.96239157  0.56964055    -0.38910
O2458       O  0.80716313  0.99059085  0.56947843    -0.38850
O2459       O  0.77094219  0.89549022  0.73140903    -0.39560
O2460       O  0.81834842  0.92205983  0.73480177    -0.39620
C2461       C  0.70633374  0.50904369  0.78425667    -0.11900
C2462       C  0.70743574  0.97500473  0.78212075     0.05100
C2463       C  0.71310246  0.95423204  0.81093963    -0.07190
C2464       C  0.71820963  0.96849110  0.84076620    -0.07930
C2465       C  0.71748619  0.50247725  0.84290310    -0.02490
C2466       C  0.71100812  0.52334736  0.81435836     0.04330
N2467       N  0.70916413  0.55856415  0.81504546     0.66840
H2468       H  0.70183651  0.52451608  0.76200819     0.15740
H2469       H  0.72273408  0.95284683  0.86291015     0.15450
N2470       N  0.71292853  0.91886526  0.81103736     0.74540
O2471       O  0.70540357  0.57641913  0.78854374    -0.38910
O2472       O  0.71069735  0.57219258  0.84185951    -0.38850
O2473       O  0.71935615  0.90529027  0.78456656    -0.39560
O2474       O  0.70754981  0.90085516  0.83822043    -0.39620
C2475       C  0.85735643  0.60830393  0.61983622    -0.11900
C2476       C  0.87634765  0.60518914  0.58961768     0.05100
C2477       C  0.87521293  0.63017933  0.56292194    -0.07190
C2478       C  0.85527401  0.65640614  0.56666479    -0.07930
C2479       C  0.83757160  0.66021740  0.59692185    -0.02490
C2480       C  0.83831655  0.63592103  0.62426204     0.04330
N2481       N  0.82069859  0.63878086  0.65635391     0.66840
H2482       H  0.85797869  0.58944379  0.64035065     0.15740
H2483       H  0.85536561  0.67545536  0.54611353     0.15450
N2484       N  0.89625953  0.63122637  0.53266099     0.74540
O2485       O  0.81945912  0.61535324  0.67911509    -0.38910
O2486       O  0.80665995  0.66463485  0.66255678    -0.38850
O2487       O  0.88378093  0.63335815  0.50481368    -0.39560
O2488       O  0.92692421  0.63778477  0.53358664    -0.39620
C2489       C  0.88196270  0.78570035  0.57025507    -0.11900
C2490       C  0.85642010  0.78037218  0.59597190     0.05100
C2491       C  0.85196911  0.80391704  0.61917092    -0.07190
C2492       C  0.87219295  0.83310288  0.61492297    -0.07930
C2493       C  0.89725935  0.83904658  0.58881633    -0.02490
C2494       C  0.90239765  0.81497074  0.56589352     0.04330
N2495       N  0.92691043  0.81989656  0.53762358     0.66840
H2496       H  0.88476638  0.76747426  0.55242959     0.15740
H2497       H  0.86760100  0.85181505  0.63159433     0.15450
N2498       N  0.82698581  0.79874726  0.64679162     0.74540
O2499       O  0.93491798  0.79590224  0.52165469    -0.38910
O2500       O  0.93934686  0.84817752  0.52709053    -0.38850
O2501       O  0.81971866  0.77025231  0.66102633    -0.39560
O2502       O  0.81421484  0.82297425  0.65901812    -0.39620
C2503       C  0.55174638  0.63491432  0.55900018    -0.11900
C2504       C  0.53090548  0.62740176  0.53396648     0.05100
C2505       C  0.53171271  0.64960988  0.50457601    -0.07190
C2506       C  0.55460348  0.67725813  0.00088132    -0.07930
C2507       C  0.57603168  0.68364985  0.52578676    -0.02490
C2508       C  0.57392590  0.66225419  0.55526554     0.04330
N2509       N  0.59282997  0.66879227  0.58274900     0.66840
H2510       H  0.55094772  0.61925410  0.58224943     0.15740
H2511       H  0.55540429  0.69422259  0.97857440     0.15450
N2512       N  0.51020690  0.64495809  0.97830500     0.74540
O2513       O  0.58245049  0.68857676  0.60289775    -0.38910
O2514       O  0.61459061  0.64942366  0.59121074    -0.38850
O2515       O  0.97942607  0.63984809  0.98520841    -0.39560
O2516       O  0.52053222  0.65373413  0.94833672    -0.39620
C2517       C  0.59731924  0.83500964  0.51641678    -0.11900
C2518       C  0.58123006  0.80420928  0.52740836     0.05100
C2519       C  0.54781128  0.80308935  0.54103876    -0.07190
C2520       C  0.53147548  0.83223181  0.54232882    -0.07930
C2521       C  0.54773600  0.86292074  0.53209365    -0.02490
C2522       C  0.58122706  0.86443844  0.51895174     0.04330
N2523       N  0.60004386  0.89520136  0.51027495     0.66840
H2524       H  0.62278408  0.83627774  0.50588797     0.15740
H2525       H  0.00605813  0.83102479  0.55310469     0.15450
N2526       N  0.53060941  0.77310751  0.55584758     0.74540
O2527       O  0.62978100  0.89818784  0.51748730    -0.38910
O2528       O  0.58914491  0.91734814  0.49095981    -0.38850
O2529       O  0.54364203  0.75512479  0.57773342    -0.39560
O2530       O  0.00073298  0.76686199  0.05045404    -0.39620
C2531       C  0.71805927  0.72127307  0.59190930    -0.11900
C2532       C  0.74603287  0.73276919  0.57074982     0.05100
C2533       C  0.74175897  0.74946010  0.53910901    -0.07190
C2534       C  0.70945679  0.75361688  0.52942658    -0.07930
C2535       C  0.68154770  0.74158234  0.55045549    -0.02490
C2536       C  0.68588842  0.72614160  0.58250910     0.04330
N2537       N  0.65804773  0.71671028  0.60626216     0.66840
H2538       H  0.72140650  0.70947530  0.61648931     0.15740
H2539       H  0.70601496  0.76532434  0.00483496     0.15450
N2540       N  0.76963406  0.76135040  0.51616724     0.74540
O2541       O  0.65957290  0.69292620  0.62819654    -0.38910
O2542       O  0.63414653  0.73514961  0.60874200    -0.38850
O2543       O  0.79530032  0.74525226  0.51377056    -0.39560
O2544       O  0.76739652  0.78628239  0.49580803    -0.39620
loop_ 
_geom_bond_atom_site_label_1 
_geom_bond_atom_site_label_2 
_geom_bond_distance 
_geom_bond_site_symmetry_2 
_ccdc_geom_bond_type 
C1            C6   1.406       .  A
C1          C320   1.411       .  A
C1          C610   1.493       .  S
C2            C3   1.404       .  A
C2          C319   1.411       .  A
C2            H7   1.083       .  S
C3            C4   1.403       .  A
C3          C309   1.484       .  S
C4          C323   1.406       .  A
C4            H8   1.084       .  S
C5            C6   1.399       .  A
C5          C322   1.406       .  A
C5          C599   1.487       .  S
C6            H9   1.083       .  S
C10          C11   1.405       .  A
C10          C15   1.402       .  A
C10         C253   1.475       .  S
C11          C12   1.407       .  A
C11          H16   1.084       .  S
C12          C13   1.405       .  A
C12         C306   1.484       .  S
C13          C14   1.403       .  A
C13          H17   1.084       .  S
C14          C15   1.398       .  A
C14         C264   1.477       .  S
C15          H18   1.085       .  S
C19          C20   1.406       .  A
C19          C24   1.404       .  A
C19         C211   1.483       .  S
C20          C21   1.406       .  A
C20          H25   1.084       .  S
C21          C22   1.404       .  A
C21         C236   1.483       .  S
C22          C23   1.409       .  A
C22          H26   1.083       .  S
C23          C24   1.402       .  A
C23         C222   1.495       .  S
C24          H27   1.084       .  S
C28          C29   1.410       .  A
C28          C33   1.405       .  A
C28         C194   1.490       .  S
C29          C30   1.406       .  A
C29          H34   1.083       .  S
C30          C31   1.400       .  A
C30         C239   1.481       .  S
C31          C32   1.405       .  A
C31          H35   1.084       .  S
C32          C33   1.400       .  A
C32         C180   1.484       .  S
C33          H36   1.084       .  S
C37          C38   1.407   1_455  A
C37          C42   1.399       .  A
C37         C138   1.476   1_455  S
C38          C39   1.409       .  A
C38          H43   1.084       .  S
C39          C40   1.406       .  A
C39        C1438   1.492       .  S
C40          C41   1.404   1_655  A
C40          H44   1.084       .  S
C41          C42   1.398       .  A
C41         C152   1.481       .  S
C42          H45   1.084       .  S
C46          C47   1.406       .  A
C46          C51   1.398       .  A
C46         C124   1.473       .  S
C47          C48   1.411       .  A
C47          H52   1.084       .  S
C48          C49   1.408       .  A
C48         C169   1.493       .  S
C49          C50   1.403       .  A
C49          H53   1.084       .  S
C50          C51   1.395       .  A
C50         C110   1.476       .  S
C51          H54   1.085       .  S
O55          C66   1.289       .  A
O55       Eu1363   2.457   1_455  S
O56          C67   1.294       .  A
O56         Eu90   2.481       .  S
O57          C68   1.294       .  A
O57       Eu1335   2.489   1_455  S
O58          C69   1.297       .  A
O58         Eu63   2.497       .  S
O59          C69   1.287       .  A
O59         Eu93   2.435       .  S
O60          C68   1.288       .  A
O60        Eu728   2.426       .  S
O61          C67   1.286       .  A
O61         Eu63   2.429       .  S
O62          C66   1.291       .  A
O62       Eu1335   2.451   1_455  S
Eu63       O1329   2.489       .  S
Eu63       O1334   2.451       .  S
Eu63         O73   2.349       .  S
Eu63         O64   2.351       .  S
Eu63         O71   2.363       .  S
Eu63       O1337   2.352       .  S
O64         Eu93   2.352       .  S
O64         Eu90   2.354       .  S
O65       Eu1335   2.352   1_455  S
O65       Eu1363   2.349   1_455  S
O65        Eu728   2.351       .  S
C66         C295   1.476       .  S
C67         C113   1.466       .  S
C68         C208   1.487       .  S
C69         C267   1.474       .  S
H70          O71   0.966       .  S
O71         Eu90   2.353       .  S
O71       Eu2000   2.348       .  S
H72          O73   0.965       .  S
O73         Eu91   2.346       .  S
O73         Eu93   2.356       .  S
O74          C97   1.297       .  A
O74        Eu726   2.494       .  S
O75         C734   1.292       .  A
O75        Eu409   2.474       .  S
O76        C1371   1.291   1_455  A
O76         Eu92   2.469       .  S
O77         C100   1.296       .  A
O77         Eu93   2.493       .  S
O78         C419   1.296       .  A
O78         Eu93   2.493   1_556  S
O79         C738   1.294       .  A
O79         Eu92   2.481       .  S
O80        C1375   1.292       .  A
O80         Eu94   2.484       .  S
O81         C104   1.292       .  A
O81         Eu94   2.470   1_556  S
O82         C103   1.288       .  A
O82         Eu92   2.426       .  S
O83         C740   1.289   1_554  A
O83         Eu93   2.445       .  S
O84          C99   1.290       .  A
O84        Eu726   2.444       .  S
O85         C102   1.285       .  A
O85       Eu1363   2.425   1_455  S
O86         C101   1.283       .  A
O86        Eu409   2.414       .  S
O87         C100   1.286       .  A
O87         Eu90   2.421       .  S
O88          C97   1.284       .  A
O88         Eu94   2.422       .  S
O89          C98   1.287       .  A
O89        Eu412   2.436       .  S
Eu90        O710   2.495       .  S
Eu90        O720   2.444       .  S
Eu90        O108   2.362       .  S
Eu90        O732   2.346       .  S
Eu91       O1327   2.457       .  S
Eu91        O393   2.474   1_554  S
Eu91       O1357   2.425       .  S
Eu91        O404   2.414   1_554  S
Eu91         O95   2.354       .  S
Eu91       O1337   2.349       .  S
Eu91        O742   2.328       .  S
Eu92        O696   2.426   1_545  S
Eu92        O701   2.351   1_545  S
Eu92       O1979   2.348   1_445  S
Eu92       O1378   2.332   1_455  S
Eu92       O1368   2.352   1_455  S
Eu93         O95   2.358       .  S
Eu93        O108   2.358       .  S
Eu94        O407   2.436   1_554  S
Eu94        O106   2.339       .  S
Eu94         O96   2.354       .  S
Eu94        O731   2.354   1_545  S
Eu94        O744   2.358       .  S
O95        Eu730   2.354       .  S
O96        Eu726   2.346       .  S
O96       Eu1364   2.352       .  S
C97         C250   1.499       .  S
C98         C155   1.466       .  S
C98         O711   1.292       .  A
C99         C141   1.496       .  S
C99        O1348   1.291       .  A
C100        C225   1.476       .  S
C101        C127   1.492       .  S
C101        O396   1.296       .  A
C102       C1137   1.467   1_554  S
C102        O715   1.294       .  A
C103        C278   1.492       .  S
C103       O1352   1.292   1_455  A
C104        C515   1.475       .  S
C104        O719   1.289   1_546  A
H105       O1378   0.963   1_455  S
O106       Eu727   2.328   1_545  S
O106      Eu1364   2.332       .  S
O106       H1377   0.963       .  S
H107        O744   0.966       .  S
O108       Eu730   2.358       .  S
O108        H743   0.966       .  S
C109        C110   1.398       .  A
C109        C114   1.405       .  A
C109        H116   1.084       .  S
C110        C111   1.417       .  A
C111        C112   1.402       .  A
C111        N118   1.439       .  S
C112        C113   1.399       .  A
C112        H117   1.084       .  S
C113        C114   1.419       .  A
C114        N115   1.445       .  S
N115        O119   1.263       .  A
N115        O120   1.261       .  A
N118        O121   1.262       .  A
N118        O122   1.263       .  A
C123        C124   1.395       .  A
C123        C128   1.390       .  A
C123        H130   1.085       .  S
C124        C125   1.417       .  A
C125        C126   1.414       .  A
C125        N132   1.443       .  S
C126        C127   1.409       .  A
C126        H131   1.083       .  S
C127        C128   1.422       .  A
C128        N129   1.435       .  S
N129        O134   1.263       .  A
N129       O1405   1.263       .  A
N132        O135   1.262       .  A
N132        O136   1.263       .  A
O133       N1401   1.263   1_455  A
C137        C138   1.403   1_455  A
C137        C142   1.408       .  A
C137        H144   1.084       .  S
C138       C1411   1.412       .  A
C139        C140   1.399       .  A
C139       C1410   1.412       .  A
C139        N146   1.441       .  S
C140        C141   1.409       .  A
C140        H145   1.083       .  S
C141       C1414   1.420       .  A
C142       C1413   1.420   1_455  A
C142        N143   1.434       .  S
N143        O147   1.262       .  A
N143        O148   1.263       .  A
N146        O149   1.262       .  A
N146        O150   1.263       .  A
C151        C152   1.401       .  A
C151        C156   1.405       .  A
C151        H158   1.084       .  S
C152       C1425   1.416   1_455  A
C153        C154   1.399       .  A
C153       C1424   1.416       .  A
C153        N160   1.436       .  S
C154        C155   1.398       .  A
C154        H159   1.085       .  S
C155       C1428   1.421       .  A
C156       C1427   1.421       .  A
C156        N157   1.446       .  S
N157        O161   1.263       .  A
N157        O162   1.260       .  A
N160        O163   1.263       .  A
N160        O164   1.262       .  A
C165       C1438   1.404       .  A
C165       C1442   1.408       .  A
C165        H172   1.084   1_655  S
C166        C167   1.419       .  A
C166       C1437   1.404       .  A
C166       C1311   1.492       .  S
C167        C168   1.404       .  A
C167        N174   1.438       .  S
C168        C169   1.403       .  A
C168        H173   1.084       .  S
C169        C170   1.420       .  A
C170       C1437   1.408       .  A
C170        N171   1.439       .  S
N171        O176   1.263       .  A
N171       O1447   1.263       .  A
N174        O177   1.263       .  A
N174        O178   1.263       .  A
O175       N1443   1.263       .  A
C179        C180   1.409       .  A
C179       C1138   1.410   1_545  A
C179        H822   1.083   1_545  S
C180        C181   1.410       .  A
C181        C182   1.396       .  A
C181        N188   1.438       .  S
C182        C183   1.401       .  A
C182        H187   1.079       .  S
C183       C1138   1.416   1_545  A
C183       C1056   1.467       .  S
C184       C1133   1.410   1_554  A
C184       C1137   1.416   1_554  A
C184        N185   1.446       .  S
N185        O189   1.263       .  A
N185        O190   1.262       .  A
H186        C815   1.083       .  S
N188        O191   1.263       .  A
N188        O192   1.263       .  A
C193        C194   1.409       .  A
C193        C198   1.407       .  A
C193        H200   1.083       .  S
C194        C195   1.416   1_545  A
C195        C196   1.400       .  A
C195        N838   1.436       .  S
C196        C197   1.402   1_565  A
C196        H837   1.085       .  S
C197        C198   1.416       .  A
C197        C422   1.475       .  S
C198        N517   1.442       .  S
N199        C516   1.442   1_554  S
N199        O203   1.263       .  A
N199        O204   1.262       .  A
H201        C832   1.085       .  S
N202        C831   1.436       .  S
N202        O206   1.262       .  A
N202        O841   1.263       .  A
O205        N838   1.263       .  A
C207        C208   1.405       .  A
C207        C212   1.394       .  A
C207        H214   1.083       .  S
C208        C209   1.418       .  A
C209        C210   1.413       .  A
C209        N216   1.435       .  S
C210        C211   1.406       .  A
C210        H215   1.084       .  S
C211        C212   1.413       .  A
C212        N213   1.441       .  S
N213        O217   1.262       .  A
N213        O218   1.263       .  A
N216        O219   1.262       .  A
N216        O220   1.263       .  A
C221        C222   1.413       .  A
C221        C226   1.408       .  A
C221        H228   1.082       .  S
C222        C223   1.413       .  A
C223        C224   1.398       .  A
C223        N230   1.439       .  S
C224        C225   1.404       .  A
C224        H229   1.080       .  S
C225        C226   1.412       .  A
C226        N227   1.440       .  S
N227        O231   1.263       .  A
N227        O232   1.262       .  A
N230        O233   1.262       .  A
N230        O234   1.263       .  A
C235        C240   1.412       .  A
C235        C872   1.405   1_545  A
C235        H242   1.083       .  S
C236        C237   1.418       .  A
C236        C871   1.405       .  A
C237        C238   1.405       .  A
C237        N244   1.445       .  S
C238        C875   1.402       .  A
C238        H243   1.084       .  S
C239        C240   1.420       .  A
C239        C874   1.402   1_545  A
C240        N241   1.448       .  S
N241        O245   1.263       .  A
N241        O246   1.262       .  A
N244        O247   1.261       .  A
N244        O248   1.263       .  A
C249        C250   1.410       .  A
C249        C254   1.418       .  A
C249        H256   1.082       .  S
C250        C251   1.422       .  A
C251        C252   1.389       .  A
C251        N258   1.431       .  S
C252        C253   1.393       .  A
C252        H257   1.086       .  S
C253        C254   1.420       .  A
C254        N255   1.447       .  S
N255        O259   1.263       .  A
N255        O260   1.262       .  A
N258        O261   1.262       .  A
N258        O262   1.261       .  A
C263        C264   1.404       .  A
C263        C268   1.409       .  A
C263        H270   1.084       .  S
C264        C265   1.408       .  A
C265        C266   1.402       .  A
C265        N272   1.441       .  S
C266        C267   1.403       .  A
C266        H271   1.076       .  S
C267        C268   1.420       .  A
C268        N269   1.447       .  S
N269        O273   1.263       .  A
N269        O274   1.262       .  A
N272        O275   1.263       .  A
N272        O276   1.263       .  A
C277        C278   1.406       .  A
C277        C282   1.387       .  A
C277        H284   1.085       .  S
C278        C279   1.425       .  A
C279        C598   1.414       .  A
C279        N604   1.439   1_554  S
C280        C597   1.414       .  A
C280        C599   1.407       .  A
C280        H285   1.083       .  S
C281        C282   1.406       .  A
C281        C598   1.407       .  A
C281        C323   1.487       .  S
C282        N283   1.428       .  S
N283        O287   1.261       .  A
N283        O288   1.262       .  A
N286        C597   1.439       .  S
N286        O290   1.263       .  A
N286       O1561   1.260   1_455  A
O289       N1558   1.260       .  A
C291        C292   1.407       .  A
C291        C296   1.407       .  A
C291        H298   1.083       .  S
C292        C293   1.420       .  A
C292        C319   1.493       .  S
C293        C294   1.397       .  A
C293        N300   1.437       .  S
C294        C295   1.400       .  A
C294       H1571   1.085       .  S
C295        C296   1.416       .  A
C296        N297   1.438       .  S
N297        O301   1.263       .  A
N297        O302   1.261   1_554  A
H299       C1566   1.085       .  S
N300        O303   1.262       .  A
N300       O1894   1.263       .  A
O304       N1890   1.263       .  A
C305        C306   1.401       .  A
C305        C310   1.404       .  A
C305        H312   1.084       .  S
C306        C307   1.419       .  A
C307        C308   1.408       .  A
C307        N314   1.440       .  S
C308        C309   1.402       .  A
C308        H631   1.084       .  S
C309        C310   1.414       .  A
C310        N311   1.438       .  S
N311        O315   1.263       .  A
N311        O316   1.262       .  A
H313        C626   1.084       .  S
N314        O317   1.263       .  A
N314        O318   1.263   1_554  A
C319        C324   1.406       .  A
C320        C321   1.404       .  A
C320        H325   1.083       .  S
C321        C322   1.403       .  A
C321        C627   1.484       .  S
C322        H326   1.084       .  S
C323        C324   1.399       .  A
C324        H327   1.083       .  S
C328        C329   1.405       .  A
C328        C333   1.402       .  A
C328        C571   1.475       .  S
C329        C330   1.407       .  A
C329        H334   1.084       .  S
C330        C331   1.405       .  A
C330        C624   1.484       .  S
C331        C332   1.403       .  A
C331        H335   1.084       .  S
C332        C333   1.398       .  A
C332        C582   1.477       .  S
C333        H336   1.085       .  S
C337        C338   1.406       .  A
C337        C342   1.404       .  A
C337        C529   1.483       .  S
C338        C339   1.406       .  A
C338        H343   1.084       .  S
C339        C340   1.404       .  A
C339        C554   1.483       .  S
C340        C341   1.409       .  A
C340        H344   1.083       .  S
C341        C342   1.402       .  A
C341        C540   1.495       .  S
C342        H345   1.084       .  S
C346        C347   1.410       .  A
C346        C351   1.405       .  A
C346        C512   1.490       .  S
C347        C348   1.406       .  A
C347        H352   1.083       .  S
C348        C349   1.400       .  A
C348        C557   1.481       .  S
C349        C350   1.405       .  A
C349        H353   1.084       .  S
C350        C351   1.400       .  A
C350        C498   1.484       .  S
C351        H354   1.084       .  S
C355        C356   1.407   1_455  A
C355        C360   1.399       .  A
C355        C456   1.476   1_455  S
C356        C357   1.409       .  A
C356        H361   1.084       .  S
C357        C358   1.406       .  A
C357       C1756   1.492       .  S
C358        C359   1.404   1_655  A
C358        H362   1.084       .  S
C359        C360   1.398       .  A
C359        C470   1.481       .  S
C360        H363   1.084       .  S
C364        C365   1.406       .  A
C364        C369   1.398       .  A
C364        C442   1.473       .  S
C365        C366   1.411       .  A
C365        H370   1.084       .  S
C366        C367   1.408       .  A
C366        C487   1.493       .  S
C367        C368   1.403       .  A
C367        H371   1.084       .  S
C368        C369   1.395       .  A
C368        C428   1.476       .  S
C369        H372   1.085       .  S
O373        C384   1.289       .  A
O373      Eu1681   2.457   1_455  S
O374        C385   1.294       .  A
O374       Eu408   2.481       .  S
O375        C386   1.294       .  A
O375      Eu1653   2.489   1_455  S
O376        C387   1.297       .  A
O376       Eu381   2.497       .  S
O377        C387   1.287       .  A
O377       Eu411   2.435       .  S
O378        C386   1.288       .  A
O378      Eu1046   2.426       .  S
O379        C385   1.286       .  A
O379       Eu381   2.429       .  S
O380        C384   1.291       .  A
O380      Eu1653   2.451   1_455  S
Eu381      O1647   2.489       .  S
Eu381      O1652   2.451       .  S
Eu381       O391   2.349       .  S
Eu381      O1655   2.352       .  S
Eu381       O382   2.351       .  S
Eu381       O389   2.363       .  S
O382       Eu411   2.352       .  S
O382       Eu408   2.354       .  S
O383      Eu1653   2.352   1_455  S
O383      Eu1681   2.349   1_455  S
O383      Eu1046   2.351       .  S
C384        C613   1.476       .  S
C385        C431   1.466       .  S
C386        C526   1.487       .  S
C387        C585   1.474       .  S
H388        O389   0.966       .  S
O389      Eu2318   2.348       .  S
O389       Eu408   2.353       .  S
H390        O391   0.965       .  S
O391       Eu409   2.346       .  S
O391       Eu411   2.356       .  S
O392        C415   1.297       .  A
O392      Eu1044   2.494       .  S
O393       C1052   1.292       .  A
O394       C1689   1.291   1_455  A
O394       Eu410   2.469       .  S
O395        C418   1.296       .  A
O395       Eu411   2.493       .  S
O396       Eu411   2.493       .  S
O397       C1056   1.294       .  A
O397       Eu410   2.481       .  S
O398       C1693   1.292       .  A
O398       Eu412   2.484       .  S
O399        C422   1.292       .  A
O399       Eu412   2.470       .  S
O400        C421   1.288       .  A
O400       Eu410   2.426       .  S
O401       C1058   1.289       .  A
O401       Eu411   2.445       .  S
O402        C417   1.290       .  A
O402      Eu1044   2.444       .  S
O403        C420   1.285       .  A
O403      Eu1681   2.425   1_455  S
O404        C419   1.283       .  A
O405        C418   1.286       .  A
O405       Eu408   2.421       .  S
O406        C415   1.284       .  A
O406       Eu412   2.422       .  S
O407        C416   1.287       .  A
Eu408      O1028   2.494       .  S
Eu408      O1038   2.444       .  S
Eu408       O426   2.362       .  S
Eu408      O1050   2.346       .  S
Eu409      O1645   2.457       .  S
Eu409      O1675   2.425       .  S
Eu409      O1655   2.349       .  S
Eu409       O413   2.354       .  S
Eu409      O1060   2.328       .  S
Eu410      O1014   2.426   1_545  S
Eu410      O1019   2.351   1_545  S
Eu410      O2297   2.348   1_445  S
Eu410      O1696   2.332   1_455  S
Eu410      O1686   2.352   1_455  S
Eu411       O413   2.358       .  S
Eu411       O426   2.358       .  S
Eu412      O1049   2.354   1_545  S
Eu412       O424   2.339       .  S
Eu412      O1062   2.358       .  S
Eu412       O414   2.354       .  S
O413      Eu1048   2.354       .  S
O414      Eu1044   2.346       .  S
O414      Eu1682   2.352       .  S
C415        C568   1.499       .  S
C416        C473   1.466       .  S
C416       O1029   1.292       .  A
C417        C459   1.496       .  S
C417       O1666   1.291       .  A
C418        C543   1.476       .  S
C419        C445   1.492       .  S
C420        C819   1.467       .  S
C420       O1033   1.294       .  A
C421        C596   1.492       .  S
C421       O1670   1.292   1_455  A
C422       O1037   1.289   1_545  A
H423       O1696   0.963   1_455  S
O424      Eu1045   2.328   1_545  S
O424      Eu1682   2.332       .  S
O424       H1695   0.963       .  S
H425       O1062   0.966       .  S
O426      Eu1048   2.358       .  S
O426       H1061   0.966       .  S
C427        C428   1.398       .  A
C427        C432   1.405       .  A
C427        H434   1.084       .  S
C428        C429   1.417       .  A
C429        C430   1.402       .  A
C429        N436   1.439       .  S
C430        C431   1.399       .  A
C430        H435   1.084       .  S
C431        C432   1.419       .  A
C432        N433   1.445       .  S
N433        O437   1.263       .  A
N433        O438   1.261       .  A
N436        O439   1.262       .  A
N436        O440   1.263       .  A
C441        C442   1.395       .  A
C441        C446   1.390       .  A
C441        H448   1.085       .  S
C442        C443   1.417       .  A
C443        C444   1.414       .  A
C443        N450   1.443       .  S
C444        C445   1.409       .  A
C444        H449   1.083       .  S
C445        C446   1.422       .  A
C446        N447   1.435       .  S
N447       O1723   1.263       .  A
N447        O452   1.263       .  A
N450        O453   1.262       .  A
N450        O454   1.263       .  A
O451       N1719   1.263   1_455  A
C455        C456   1.403   1_455  A
C455        C460   1.408       .  A
C455        H462   1.084       .  S
C456       C1729   1.412       .  A
C457       C1728   1.412       .  A
C457        C458   1.399       .  A
C457        N464   1.441       .  S
C458        C459   1.409       .  A
C458        H463   1.083       .  S
C459       C1732   1.420       .  A
C460       C1731   1.420   1_455  A
C460        N461   1.434       .  S
N461        O465   1.262       .  A
N461        O466   1.263       .  A
N464        O467   1.262       .  A
N464        O468   1.263       .  A
C469        C470   1.401       .  A
C469        C474   1.405       .  A
C469        H476   1.084       .  S
C470       C1743   1.416   1_455  A
C471       C1742   1.416       .  A
C471        C472   1.399       .  A
C471        N478   1.436       .  S
C472        C473   1.398       .  A
C472        H477   1.085       .  S
C473       C1746   1.421       .  A
C474       C1745   1.421       .  A
C474        N475   1.446       .  S
N475        O479   1.263       .  A
N475        O480   1.260       .  A
N478        O481   1.263       .  A
N478        O482   1.262       .  A
C483       C1756   1.404       .  A
C483       C1760   1.408       .  A
C483        H490   1.084   1_655  S
C484       C1755   1.404       .  A
C484        C485   1.419       .  A
C484       C1629   1.492       .  S
C485        C486   1.404       .  A
C485        N492   1.438       .  S
C486        C487   1.403       .  A
C486        H491   1.084       .  S
C487        C488   1.420       .  A
C488       C1755   1.408       .  A
C488        N489   1.439       .  S
N489       O1765   1.263       .  A
N489        O494   1.263       .  A
N492        O495   1.263       .  A
N492        O496   1.263       .  A
O493       N1761   1.263       .  A
C497        C498   1.409       .  A
C497        C820   1.410   1_546  A
C497       H1140   1.083   1_545  S
C498        C499   1.410       .  A
C499        C500   1.396       .  A
C499        N506   1.438       .  S
C500        C501   1.401       .  A
C500        H505   1.079       .  S
C501        C820   1.416   1_546  A
C501        C738   1.467   1_556  S
C502        C815   1.410       .  A
C502        C819   1.416       .  A
C502        N503   1.446       .  S
N503        O507   1.263       .  A
N503        O508   1.262       .  A
H504       C1133   1.083       .  S
N506        O509   1.263       .  A
N506        O510   1.263       .  A
C511        C512   1.409       .  A
C511        C516   1.407       .  A
C511        H518   1.083       .  S
C512        C513   1.416   1_545  A
C513        C514   1.400       .  A
C513       N1156   1.436       .  S
C514        C515   1.402   1_565  A
C514       H1155   1.085       .  S
C515        C516   1.416       .  A
N517        O521   1.263       .  A
N517        O522   1.262       .  A
H519       C1150   1.085       .  S
N520       C1149   1.436       .  S
N520       O1159   1.263       .  A
N520        O524   1.262       .  A
O523       N1156   1.263       .  A
C525        C526   1.405       .  A
C525        C530   1.394       .  A
C525        H532   1.083       .  S
C526        C527   1.418       .  A
C527        C528   1.413       .  A
C527        N534   1.435       .  S
C528        C529   1.406       .  A
C528        H533   1.084       .  S
C529        C530   1.413       .  A
C530        N531   1.441       .  S
N531        O535   1.262       .  A
N531        O536   1.263       .  A
N534        O537   1.262       .  A
N534        O538   1.263       .  A
C539        C540   1.413       .  A
C539        C544   1.408       .  A
C539        H546   1.082       .  S
C540        C541   1.413       .  A
C541        C542   1.398       .  A
C541        N548   1.439       .  S
C542        C543   1.404       .  A
C542        H547   1.080       .  S
C543        C544   1.412       .  A
C544        N545   1.440       .  S
N545        O549   1.263       .  A
N545        O550   1.262       .  A
N548        O551   1.262       .  A
N548        O552   1.263       .  A
C553       C1190   1.405   1_545  A
C553        C558   1.412       .  A
C553        H560   1.083       .  S
C554       C1189   1.405       .  A
C554        C555   1.418       .  A
C555        C556   1.405       .  A
C555        N562   1.445       .  S
C556       C1193   1.402       .  A
C556        H561   1.084       .  S
C557       C1192   1.402   1_545  A
C557        C558   1.420       .  A
C558        N559   1.448       .  S
N559        O563   1.263       .  A
N559        O564   1.262       .  A
N562        O565   1.261       .  A
N562        O566   1.263       .  A
C567        C568   1.410       .  A
C567        C572   1.418       .  A
C567        H574   1.082       .  S
C568        C569   1.422       .  A
C569        C570   1.389       .  A
C569        N576   1.431       .  S
C570        C571   1.393       .  A
C570        H575   1.086       .  S
C571        C572   1.420       .  A
C572        N573   1.447       .  S
N573        O577   1.263       .  A
N573        O578   1.262       .  A
N576        O579   1.262       .  A
N576        O580   1.261       .  A
C581        C582   1.404       .  A
C581        C586   1.409       .  A
C581        H588   1.084       .  S
C582        C583   1.408       .  A
C583        C584   1.402       .  A
C583        N590   1.441       .  S
C584        C585   1.403       .  A
C584        H589   1.076       .  S
C585        C586   1.420       .  A
C586        N587   1.447       .  S
N587        O591   1.263       .  A
N587        O592   1.262       .  A
N590        O593   1.263       .  A
N590        O594   1.263       .  A
C595        C596   1.406       .  A
C595        C600   1.387       .  A
C595        H602   1.085       .  S
C596        C597   1.425       .  A
C598        H603   1.083   1_554  S
C599        C600   1.406       .  A
C600        N601   1.428       .  S
N601        O605   1.261       .  A
N601        O606   1.262       .  A
N604       O1879   1.260   1_455  A
N604        O608   1.263       .  A
O607       N1876   1.260       .  A
C609        C610   1.407       .  A
C609        C614   1.407       .  A
C609        H616   1.083       .  S
C610        C611   1.420       .  A
C611        C612   1.397       .  A
C611        N618   1.437       .  S
C612        C613   1.400       .  A
C612       H1889   1.085       .  S
C613        C614   1.416       .  A
C614        N615   1.438       .  S
N615        O619   1.263       .  A
N615        O620   1.261       .  A
H617       C1884   1.085       .  S
N618        O621   1.262       .  A
N618       O1576   1.263       .  A
O622       N1572   1.263       .  A
C623        C624   1.401       .  A
C623        C628   1.404       .  A
C623        H630   1.084       .  S
C624        C625   1.419       .  A
C625        C626   1.408       .  A
C625        N632   1.440       .  S
C626        C627   1.402       .  A
C627        C628   1.414       .  A
C628        N629   1.438       .  S
N629        O633   1.263       .  A
N629        O634   1.262       .  A
N632        O635   1.263       .  A
N632        O636   1.263       .  A
C637        C956   1.411       .  A
C637        C642   1.406       .  A
C637       C1246   1.493       .  S
C638        C955   1.411       .  A
C638        C639   1.404       .  A
C638        H643   1.083       .  S
C639        C640   1.403       .  A
C639        C945   1.484       .  S
C640        C959   1.406       .  A
C640        H644   1.084       .  S
C641        C958   1.406       .  A
C641        C642   1.399       .  A
C641       C1235   1.487       .  S
C642        H645   1.083       .  S
C646        C647   1.405       .  A
C646        C651   1.402       .  A
C646        C889   1.475       .  S
C647        C648   1.407       .  A
C647        H652   1.084       .  S
C648        C649   1.405       .  A
C648        C942   1.484       .  S
C649        C650   1.403       .  A
C649        H653   1.084       .  S
C650        C651   1.398       .  A
C650        C900   1.477       .  S
C651        H654   1.085       .  S
C655        C656   1.406       .  A
C655        C660   1.404       .  A
C655        C847   1.483       .  S
C656        C657   1.406       .  A
C656        H661   1.084       .  S
C657        C658   1.404       .  A
C657        C872   1.483       .  S
C658        C659   1.409       .  A
C658        H662   1.083       .  S
C659        C660   1.402       .  A
C659        C858   1.495       .  S
C660        H663   1.084       .  S
C664        C665   1.410       .  A
C664        C669   1.405       .  A
C664        C830   1.490       .  S
C665        C666   1.406       .  A
C665        H670   1.083       .  S
C666        C667   1.400       .  A
C666        C875   1.481       .  S
C667        C668   1.405       .  A
C667        H671   1.084       .  S
C668        C669   1.400       .  A
C668        C816   1.484       .  S
C669        H672   1.084       .  S
C673        C674   1.407   1_455  A
C673        C678   1.399       .  A
C673        C774   1.476   1_455  S
C674        C675   1.409       .  A
C674        H679   1.084       .  S
C675        C676   1.406       .  A
C675       C2074   1.492       .  S
C676        C677   1.404   1_655  A
C676        H680   1.084       .  S
C677        C678   1.398       .  A
C677        C788   1.481       .  S
C678        H681   1.084       .  S
C682        C683   1.406       .  A
C682        C687   1.398       .  A
C682        C760   1.473       .  S
C683        C684   1.411       .  A
C683        H688   1.084       .  S
C684        C685   1.408       .  A
C684        C805   1.493       .  S
C685        C686   1.403       .  A
C685        H689   1.084       .  S
C686        C687   1.395       .  A
C686        C746   1.476       .  S
C687        H690   1.085       .  S
O691        C702   1.289       .  A
O691      Eu1999   2.457   1_455  S
O692        C703   1.294       .  A
O692       Eu726   2.481   1_565  S
O693        C704   1.294       .  A
O693      Eu1971   2.489   1_455  S
O694        C705   1.297       .  A
O694       Eu699   2.497       .  S
O695        C705   1.287       .  A
O695       Eu729   2.435       .  S
O696        C704   1.288       .  A
O697        C703   1.286       .  A
O697       Eu699   2.429       .  S
O698        C702   1.291       .  A
O698      Eu1971   2.451   1_455  S
Eu699      O1965   2.489       .  S
Eu699      O1970   2.451       .  S
Eu699       O709   2.349       .  S
Eu699      O1973   2.352       .  S
Eu699       O700   2.351       .  S
Eu699       O707   2.363       .  S
O700       Eu729   2.352       .  S
O700       Eu726   2.354   1_565  S
O701      Eu1971   2.352   1_455  S
O701      Eu1999   2.349   1_455  S
C702        C931   1.476       .  S
C703        C749   1.466       .  S
C704        C844   1.487       .  S
C705        C903   1.474       .  S
H706        O707   0.966       .  S
O707      Eu1364   2.348   1_565  S
O707       Eu726   2.353   1_565  S
H708        O709   0.965       .  S
O709       Eu727   2.346       .  S
O709       Eu729   2.356       .  S
O710        C733   1.297       .  A
O711      Eu1045   2.474   1_545  S
O712       C2007   1.291   1_455  A
O712       Eu728   2.469       .  S
O713        C736   1.296       .  A
O713       Eu729   2.493       .  S
O714       C1055   1.296       .  A
O714       Eu729   2.493   1_556  S
O715       Eu728   2.481       .  S
O716       C2011   1.292       .  A
O716       Eu730   2.484       .  S
O717        C740   1.292       .  A
O717       Eu730   2.470   1_556  S
O718        C739   1.288       .  A
O718       Eu728   2.426       .  S
O719       Eu729   2.445       .  S
O720        C735   1.290       .  A
O721        C738   1.285   1_565  A
O721      Eu1999   2.425   1_455  S
O722        C737   1.283       .  A
O722      Eu1045   2.414       .  S
O723        C736   1.286       .  A
O723       Eu726   2.421   1_565  S
O724        C733   1.284       .  A
O724       Eu730   2.422       .  S
O725        C734   1.287       .  A
O725      Eu1048   2.436       .  S
Eu726       O744   2.362       .  S
Eu727      O1963   2.457       .  S
Eu727      O1029   2.474   1_564  S
Eu727      O1993   2.425       .  S
Eu727      O1040   2.414   1_554  S
Eu727      O1973   2.349       .  S
Eu727       O731   2.354       .  S
Eu728      O1343   2.348   1_455  S
Eu728      O2014   2.332   1_455  S
Eu728      O2004   2.352   1_455  S
Eu729       O731   2.358       .  S
Eu729       O744   2.358   1_565  S
Eu730      O1043   2.436   1_554  S
Eu730       O742   2.339       .  S
Eu730       O732   2.354       .  S
O732      Eu2000   2.352       .  S
C733        C886   1.499       .  S
C734        C791   1.466       .  S
C735        C777   1.496       .  S
C735       O1984   1.291       .  A
C736        C861   1.476       .  S
C737        C763   1.492       .  S
C737       O1032   1.296       .  A
C739        C914   1.492       .  S
C739       O1988   1.292   1_455  A
C740       C1151   1.475       .  S
H741       O2014   0.963   1_455  S
O742      Eu2000   2.332       .  S
O742       H2013   0.963       .  S
C745        C746   1.398       .  A
C745        C750   1.405       .  A
C745        H752   1.084       .  S
C746        C747   1.417       .  A
C747        C748   1.402       .  A
C747        N754   1.439       .  S
C748        C749   1.399       .  A
C748        H753   1.084       .  S
C749        C750   1.419       .  A
C750        N751   1.445       .  S
N751        O755   1.263       .  A
N751        O756   1.261       .  A
N754        O757   1.262       .  A
N754        O758   1.263       .  A
C759        C760   1.395       .  A
C759        C764   1.390       .  A
C759        H766   1.085       .  S
C760        C761   1.417       .  A
C761        C762   1.414       .  A
C761        N768   1.443       .  S
C762        C763   1.409       .  A
C762        H767   1.083       .  S
C763        C764   1.422       .  A
C764        N765   1.435       .  S
N765       O2041   1.263       .  A
N765        O770   1.263       .  A
N768        O771   1.262       .  A
N768        O772   1.263       .  A
O769       N2037   1.263   1_455  A
C773        C774   1.403   1_455  A
C773        C778   1.408       .  A
C773        H780   1.084       .  S
C774       C2047   1.412       .  A
C775       C2046   1.412       .  A
C775        C776   1.399       .  A
C775        N782   1.441       .  S
C776        C777   1.409       .  A
C776        H781   1.083       .  S
C777       C2050   1.420       .  A
C778       C2049   1.420   1_455  A
C778        N779   1.434       .  S
N779        O783   1.262       .  A
N779        O784   1.263       .  A
N782        O785   1.262       .  A
N782        O786   1.263       .  A
C787        C788   1.401       .  A
C787        C792   1.405       .  A
C787        H794   1.084       .  S
C788       C2061   1.416   1_455  A
C789       C2060   1.416       .  A
C789        C790   1.399       .  A
C789        N796   1.436       .  S
C790        C791   1.398       .  A
C790        H795   1.085       .  S
C791       C2064   1.421       .  A
C792       C2063   1.421       .  A
C792        N793   1.446       .  S
N793        O797   1.263       .  A
N793        O798   1.260       .  A
N796        O799   1.263       .  A
N796        O800   1.262       .  A
C801       C2074   1.404       .  A
C801       C2078   1.408       .  A
C801        H808   1.084   1_655  S
C802       C2073   1.404       .  A
C802        C803   1.419       .  A
C802       C1947   1.492       .  S
C803        C804   1.404       .  A
C803        N810   1.438       .  S
C804        C805   1.403       .  A
C804        H809   1.084       .  S
C805        C806   1.420       .  A
C806       C2073   1.408       .  A
C806        N807   1.439       .  S
N807       O2083   1.263       .  A
N807        O812   1.263       .  A
N810        O813   1.263       .  A
N810        O814   1.263       .  A
O811       N2079   1.263       .  A
C815        C816   1.409       .  A
C816        C817   1.410       .  A
C817        C818   1.396       .  A
C817        N824   1.438       .  S
C818        C819   1.401       .  A
C818        H823   1.079       .  S
C820        N821   1.446       .  S
N821        O825   1.263       .  A
N821        O826   1.262       .  A
N824        O827   1.263       .  A
N824        O828   1.263       .  A
C829        C830   1.409       .  A
C829        C834   1.407       .  A
C829        H836   1.083       .  S
C830        C831   1.416       .  A
C831        C832   1.400       .  A
C832        C833   1.402       .  A
C833        C834   1.416       .  A
C833       C1058   1.475       .  S
C834       N1153   1.442       .  S
N835       C1152   1.442   1_554  S
N835        O839   1.263       .  A
N835        O840   1.262       .  A
N838        O842   1.262       .  A
C843        C844   1.405       .  A
C843        C848   1.394       .  A
C843        H850   1.083       .  S
C844        C845   1.418       .  A
C845        C846   1.413       .  A
C845        N852   1.435       .  S
C846        C847   1.406       .  A
C846        H851   1.084       .  S
C847        C848   1.413       .  A
C848        N849   1.441       .  S
N849        O853   1.262       .  A
N849        O854   1.263   1_565  A
N852        O855   1.262       .  A
N852        O856   1.263       .  A
C857        C858   1.413       .  A
C857        C862   1.408       .  A
C857        H864   1.082       .  S
C858        C859   1.413       .  A
C859        C860   1.398       .  A
C859        N866   1.439       .  S
C860        C861   1.404       .  A
C860        H865   1.080       .  S
C861        C862   1.412       .  A
C862        N863   1.440       .  S
N863        O867   1.263       .  A
N863        O868   1.262       .  A
N866        O869   1.262       .  A
N866        O870   1.263       .  A
C871        C876   1.412       .  A
C871        H878   1.083       .  S
C872        C873   1.418       .  A
C873        C874   1.405       .  A
C873        N880   1.445       .  S
C874        H879   1.084       .  S
C875        C876   1.420       .  A
C876        N877   1.448       .  S
N877        O881   1.263       .  A
N877        O882   1.262       .  A
N880        O883   1.261       .  A
N880        O884   1.263       .  A
C885        C886   1.410       .  A
C885        C890   1.418       .  A
C885        H892   1.082       .  S
C886        C887   1.422       .  A
C887        C888   1.389       .  A
C887        N894   1.431       .  S
C888        C889   1.393       .  A
C888        H893   1.086       .  S
C889        C890   1.420       .  A
C890        N891   1.447       .  S
N891        O895   1.263       .  A
N891        O896   1.262       .  A
N894        O897   1.262       .  A
N894        O898   1.261       .  A
C899        C900   1.404       .  A
C899        C904   1.409       .  A
C899        H906   1.084       .  S
C900        C901   1.408       .  A
C901        C902   1.402       .  A
C901        N908   1.441       .  S
C902        C903   1.403       .  A
C902        H907   1.076       .  S
C903        C904   1.420       .  A
C904        N905   1.447       .  S
N905        O909   1.263       .  A
N905        O910   1.262       .  A
N908        O911   1.263       .  A
N908        O912   1.263       .  A
C913        C914   1.406       .  A
C913        C918   1.387       .  A
C913        H920   1.085       .  S
C914        C915   1.425       .  A
C915       C1234   1.414       .  A
C915       N1240   1.439   1_554  S
C916       C1233   1.414       .  A
C916       C1235   1.407       .  A
C916        H921   1.083       .  S
C917       C1234   1.407       .  A
C917        C918   1.406       .  A
C917        C959   1.487       .  S
C918        N919   1.428       .  S
N919        O923   1.261       .  A
N919        O924   1.262       .  A
N922       C1233   1.439       .  S
N922       O2197   1.260   1_455  A
N922        O926   1.263       .  A
O925       N2194   1.260       .  A
C927        C928   1.407       .  A
C927        C932   1.407       .  A
C927        H934   1.083       .  S
C928        C929   1.420       .  A
C928        C955   1.493       .  S
C929        C930   1.397       .  A
C929        N936   1.437       .  S
C930        C931   1.400       .  A
C930       H2207   1.085       .  S
C931        C932   1.416       .  A
C932        N933   1.438       .  S
N933        O937   1.263       .  A
N933        O938   1.261   1_554  A
H935       C2202   1.085       .  S
N936        O939   1.262       .  A
N936       O2530   1.263       .  A
O940       N2526   1.263       .  A
C941        C942   1.401       .  A
C941        C946   1.404       .  A
C941        H948   1.084       .  S
C942        C943   1.419       .  A
C943        C944   1.408       .  A
C943        N950   1.440       .  S
C944        C945   1.402       .  A
C944       H1267   1.084       .  S
C945        C946   1.414       .  A
C946        N947   1.438       .  S
N947        O951   1.263       .  A
N947        O952   1.262       .  A
H949       C1262   1.084       .  S
N950        O953   1.263       .  A
N950        O954   1.263   1_554  A
C955        C960   1.406       .  A
C956        C957   1.404       .  A
C956        H961   1.083       .  S
C957        C958   1.403       .  A
C957       C1263   1.484       .  S
C958        H962   1.084       .  S
C959        C960   1.399       .  A
C960        H963   1.083       .  S
C964        C965   1.405       .  A
C964        C969   1.402       .  A
C964       C1207   1.475       .  S
C965        C966   1.407       .  A
C965        H970   1.084       .  S
C966        C967   1.405       .  A
C966       C1260   1.484       .  S
C967        C968   1.403       .  A
C967        H971   1.084       .  S
C968        C969   1.398       .  A
C968       C1218   1.477       .  S
C969        H972   1.085       .  S
C973        C974   1.406       .  A
C973        C978   1.404       .  A
C973       C1165   1.483       .  S
C974        C975   1.406       .  A
C974        H979   1.084       .  S
C975        C976   1.404       .  A
C975       C1190   1.483       .  S
C976        C977   1.409       .  A
C976        H980   1.083       .  S
C977        C978   1.402       .  A
C977       C1176   1.495       .  S
C978        H981   1.084       .  S
C982        C983   1.410       .  A
C982        C987   1.405       .  A
C982       C1148   1.490       .  S
C983        C984   1.406       .  A
C983        H988   1.083       .  S
C984        C985   1.400       .  A
C984       C1193   1.481       .  S
C985        C986   1.405       .  A
C985        H989   1.084       .  S
C986        C987   1.400       .  A
C986       C1134   1.484       .  S
C987        H990   1.084       .  S
C991        C992   1.407   1_455  A
C991        C996   1.399       .  A
C991       C1092   1.476   1_455  S
C992        C993   1.409       .  A
C992        H997   1.084       .  S
C993        C994   1.406       .  A
C993       C2392   1.492       .  S
C994        C995   1.404   1_655  A
C994        H998   1.084       .  S
C995        C996   1.398       .  A
C995       C1106   1.481       .  S
C996        H999   1.084       .  S
C1000      C1001   1.406       .  A
C1000      C1005   1.398       .  A
C1000      C1078   1.473       .  S
C1001      C1002   1.411       .  A
C1001      H1006   1.084       .  S
C1002      C1003   1.408       .  A
C1002      C1123   1.493       .  S
C1003      C1004   1.403       .  A
C1003      H1007   1.084       .  S
C1004      C1005   1.395       .  A
C1004      C1064   1.476       .  S
C1005      H1008   1.085       .  S
O1009      C1020   1.289       .  A
O1009     Eu2317   2.457   1_455  S
O1010      C1021   1.294       .  A
O1010     Eu1044   2.481   1_565  S
O1011      C1022   1.294       .  A
O1011     Eu2289   2.489   1_455  S
O1012      C1023   1.297       .  A
O1012     Eu1017   2.497       .  S
O1013      C1023   1.287       .  A
O1013     Eu1047   2.435       .  S
O1014      C1022   1.288       .  A
O1015      C1021   1.286       .  A
O1015     Eu1017   2.429       .  S
O1016      C1020   1.291       .  A
O1016     Eu2289   2.451   1_455  S
Eu1017     O2283   2.489       .  S
Eu1017     O2288   2.451       .  S
Eu1017     O1027   2.349       .  S
Eu1017     O2291   2.352       .  S
Eu1017     O1018   2.351       .  S
Eu1017     O1025   2.363       .  S
O1018     Eu1047   2.352       .  S
O1018     Eu1044   2.354   1_565  S
O1019     Eu2289   2.352   1_455  S
O1019     Eu2317   2.349   1_455  S
C1020      C1249   1.476       .  S
C1021      C1067   1.466       .  S
C1022      C1162   1.487       .  S
C1023      C1221   1.474       .  S
H1024      O1025   0.966       .  S
O1025     Eu1682   2.348   1_565  S
O1025     Eu1044   2.353   1_565  S
H1026      O1027   0.965       .  S
O1027     Eu1045   2.346       .  S
O1027     Eu1047   2.356       .  S
O1028      C1051   1.297       .  A
O1030      C2325   1.291   1_455  A
O1030     Eu1046   2.469       .  S
O1031      C1054   1.296       .  A
O1031     Eu1047   2.493       .  S
O1032     Eu1047   2.493       .  S
O1033     Eu1046   2.481       .  S
O1034      C2329   1.292       .  A
O1034     Eu1048   2.484       .  S
O1035      C1058   1.292       .  A
O1035     Eu1048   2.470       .  S
O1036      C1057   1.288       .  A
O1036     Eu1046   2.426       .  S
O1037     Eu1047   2.445       .  S
O1038      C1053   1.290       .  A
O1039      C1056   1.285   1_565  A
O1039     Eu2317   2.425   1_455  S
O1040      C1055   1.283       .  A
O1041      C1054   1.286       .  A
O1041     Eu1044   2.421   1_565  S
O1042      C1051   1.284       .  A
O1042     Eu1048   2.422       .  S
O1043      C1052   1.287       .  A
Eu1044     O1062   2.362       .  S
Eu1045     O2281   2.457       .  S
Eu1045     O2311   2.425       .  S
Eu1045     O2291   2.349       .  S
Eu1045     O1049   2.354       .  S
Eu1046     O1661   2.348   1_455  S
Eu1046     O2332   2.332   1_455  S
Eu1046     O2322   2.352   1_455  S
Eu1047     O1049   2.358       .  S
Eu1047     O1062   2.358   1_565  S
Eu1048     O1060   2.339       .  S
Eu1048     O1050   2.354       .  S
O1050     Eu2318   2.352       .  S
C1051      C1204   1.499       .  S
C1052      C1109   1.466       .  S
C1053      C1095   1.496       .  S
C1053      O2302   1.291       .  A
C1054      C1179   1.476       .  S
C1055      C1081   1.492       .  S
C1057      C1232   1.492       .  S
C1057      O2306   1.292   1_455  A
H1059      O2332   0.963   1_455  S
O1060     Eu2318   2.332       .  S
O1060      H2331   0.963       .  S
C1063      C1064   1.398       .  A
C1063      C1068   1.405       .  A
C1063      H1070   1.084       .  S
C1064      C1065   1.417       .  A
C1065      C1066   1.402       .  A
C1065      N1072   1.439       .  S
C1066      C1067   1.399       .  A
C1066      H1071   1.084       .  S
C1067      C1068   1.419       .  A
C1068      N1069   1.445       .  S
N1069      O1073   1.263       .  A
N1069      O1074   1.261       .  A
N1072      O1075   1.262       .  A
N1072      O1076   1.263       .  A
C1077      C1078   1.395       .  A
C1077      C1082   1.390       .  A
C1077      H1084   1.085       .  S
C1078      C1079   1.417       .  A
C1079      C1080   1.414       .  A
C1079      N1086   1.443       .  S
C1080      C1081   1.409       .  A
C1080      H1085   1.083       .  S
C1081      C1082   1.422       .  A
C1082      N1083   1.435       .  S
N1083      O2359   1.263       .  A
N1083      O1088   1.263       .  A
N1086      O1089   1.262       .  A
N1086      O1090   1.263       .  A
O1087      N2355   1.263   1_455  A
C1091      C1092   1.403   1_455  A
C1091      C1096   1.408       .  A
C1091      H1098   1.084       .  S
C1092      C2365   1.412       .  A
C1093      C2364   1.412       .  A
C1093      C1094   1.399       .  A
C1093      N1100   1.441       .  S
C1094      C1095   1.409       .  A
C1094      H1099   1.083       .  S
C1095      C2368   1.420       .  A
C1096      C2367   1.420   1_455  A
C1096      N1097   1.434       .  S
N1097      O1101   1.262       .  A
N1097      O1102   1.263       .  A
N1100      O1103   1.262       .  A
N1100      O1104   1.263       .  A
C1105      C1106   1.401       .  A
C1105      C1110   1.405       .  A
C1105      H1112   1.084       .  S
C1106      C2379   1.416   1_455  A
C1107      C2378   1.416       .  A
C1107      C1108   1.399       .  A
C1107      N1114   1.436       .  S
C1108      C1109   1.398       .  A
C1108      H1113   1.085       .  S
C1109      C2382   1.421       .  A
C1110      C2381   1.421       .  A
C1110      N1111   1.446       .  S
N1111      O1115   1.263       .  A
N1111      O1116   1.260       .  A
N1114      O1117   1.263       .  A
N1114      O1118   1.262       .  A
C1119      C2392   1.404       .  A
C1119      C2396   1.408       .  A
C1119      H1126   1.084   1_655  S
C1120      C2391   1.404       .  A
C1120      C1121   1.419       .  A
C1120      C2265   1.492       .  S
C1121      C1122   1.404       .  A
C1121      N1128   1.438       .  S
C1122      C1123   1.403       .  A
C1122      H1127   1.084       .  S
C1123      C1124   1.420       .  A
C1124      C2391   1.408       .  A
C1124      N1125   1.439       .  S
N1125      O2401   1.263       .  A
N1125      O1130   1.263       .  A
N1128      O1131   1.263       .  A
N1128      O1132   1.263       .  A
O1129      N2397   1.263       .  A
C1133      C1134   1.409       .  A
C1134      C1135   1.410       .  A
C1135      C1136   1.396       .  A
C1135      N1142   1.438       .  S
C1136      C1137   1.401       .  A
C1136      H1141   1.079       .  S
C1138      N1139   1.446       .  S
N1139      O1143   1.263       .  A
N1139      O1144   1.262       .  A
N1142      O1145   1.263       .  A
N1142      O1146   1.263       .  A
C1147      C1148   1.409       .  A
C1147      C1152   1.407       .  A
C1147      H1154   1.083       .  S
C1148      C1149   1.416       .  A
C1149      C1150   1.400       .  A
C1150      C1151   1.402       .  A
C1151      C1152   1.416       .  A
N1153      O1157   1.263       .  A
N1153      O1158   1.262       .  A
N1156      O1160   1.262       .  A
C1161      C1162   1.405       .  A
C1161      C1166   1.394       .  A
C1161      H1168   1.083       .  S
C1162      C1163   1.418       .  A
C1163      C1164   1.413       .  A
C1163      N1170   1.435       .  S
C1164      C1165   1.406       .  A
C1164      H1169   1.084       .  S
C1165      C1166   1.413       .  A
C1166      N1167   1.441       .  S
N1167      O1171   1.262       .  A
N1167      O1172   1.263   1_565  A
N1170      O1173   1.262       .  A
N1170      O1174   1.263       .  A
C1175      C1176   1.413       .  A
C1175      C1180   1.408       .  A
C1175      H1182   1.082       .  S
C1176      C1177   1.413       .  A
C1177      C1178   1.398       .  A
C1177      N1184   1.439       .  S
C1178      C1179   1.404       .  A
C1178      H1183   1.080       .  S
C1179      C1180   1.412       .  A
C1180      N1181   1.440       .  S
N1181      O1185   1.263       .  A
N1181      O1186   1.262       .  A
N1184      O1187   1.262       .  A
N1184      O1188   1.263       .  A
C1189      C1194   1.412       .  A
C1189      H1196   1.083       .  S
C1190      C1191   1.418       .  A
C1191      C1192   1.405       .  A
C1191      N1198   1.445       .  S
C1192      H1197   1.084       .  S
C1193      C1194   1.420       .  A
C1194      N1195   1.448       .  S
N1195      O1199   1.263       .  A
N1195      O1200   1.262       .  A
N1198      O1201   1.261       .  A
N1198      O1202   1.263       .  A
C1203      C1204   1.410       .  A
C1203      C1208   1.418       .  A
C1203      H1210   1.082       .  S
C1204      C1205   1.422       .  A
C1205      C1206   1.389       .  A
C1205      N1212   1.431       .  S
C1206      C1207   1.393       .  A
C1206      H1211   1.086       .  S
C1207      C1208   1.420       .  A
C1208      N1209   1.447       .  S
N1209      O1213   1.263       .  A
N1209      O1214   1.262       .  A
N1212      O1215   1.262       .  A
N1212      O1216   1.261       .  A
C1217      C1218   1.404       .  A
C1217      C1222   1.409       .  A
C1217      H1224   1.084       .  S
C1218      C1219   1.408       .  A
C1219      C1220   1.402       .  A
C1219      N1226   1.441       .  S
C1220      C1221   1.403       .  A
C1220      H1225   1.076       .  S
C1221      C1222   1.420       .  A
C1222      N1223   1.447       .  S
N1223      O1227   1.263       .  A
N1223      O1228   1.262       .  A
N1226      O1229   1.263       .  A
N1226      O1230   1.263       .  A
C1231      C1232   1.406       .  A
C1231      C1236   1.387       .  A
C1231      H1238   1.085       .  S
C1232      C1233   1.425       .  A
C1234      H1239   1.083   1_554  S
C1235      C1236   1.406       .  A
C1236      N1237   1.428       .  S
N1237      O1241   1.261       .  A
N1237      O1242   1.262       .  A
N1240      O2515   1.260   1_455  A
N1240      O1244   1.263       .  A
O1243      N2512   1.260       .  A
C1245      C1246   1.407       .  A
C1245      C1250   1.407       .  A
C1245      H1252   1.083       .  S
C1246      C1247   1.420       .  A
C1247      C1248   1.397       .  A
C1247      N1254   1.437       .  S
C1248      C1249   1.400       .  A
C1248      H2525   1.085       .  S
C1249      C1250   1.416       .  A
C1250      N1251   1.438       .  S
N1251      O1255   1.263       .  A
N1251      O1256   1.261       .  A
H1253      C2520   1.085       .  S
N1254      O1257   1.262       .  A
N1254      O2212   1.263       .  A
O1258      N2208   1.263       .  A
C1259      C1260   1.401       .  A
C1259      C1264   1.404       .  A
C1259      H1266   1.084       .  S
C1260      C1261   1.419       .  A
C1261      C1262   1.408       .  A
C1261      N1268   1.440       .  S
C1262      C1263   1.402       .  A
C1263      C1264   1.414       .  A
C1264      N1265   1.438       .  S
N1265      O1269   1.263       .  A
N1265      O1270   1.262       .  A
N1268      O1271   1.263       .  A
N1268      O1272   1.263       .  A
C1273      C1592   1.411       .  A
C1273      C1278   1.406       .  A
C1273      C1882   1.493       .  S
C1274      C1591   1.411       .  A
C1274      C1275   1.404       .  A
C1274      H1279   1.083       .  S
C1275      C1276   1.403       .  A
C1275      C1581   1.484       .  S
C1276      C1595   1.406       .  A
C1276      H1280   1.084       .  S
C1277      C1594   1.406       .  A
C1277      C1278   1.399       .  A
C1277      C1871   1.487       .  S
C1278      H1281   1.083       .  S
C1282      C1283   1.405       .  A
C1282      C1287   1.402       .  A
C1282      C1525   1.475       .  S
C1283      C1284   1.407       .  A
C1283      H1288   1.084       .  S
C1284      C1285   1.405       .  A
C1284      C1578   1.484       .  S
C1285      C1286   1.403       .  A
C1285      H1289   1.084       .  S
C1286      C1287   1.398       .  A
C1286      C1536   1.477       .  S
C1287      H1290   1.085       .  S
C1291      C1292   1.406       .  A
C1291      C1296   1.404       .  A
C1291      C1483   1.483       .  S
C1292      C1293   1.406       .  A
C1292      H1297   1.084       .  S
C1293      C1294   1.404       .  A
C1293      C1508   1.483       .  S
C1294      C1295   1.409       .  A
C1294      H1298   1.083       .  S
C1295      C1296   1.402       .  A
C1295      C1494   1.495       .  S
C1296      H1299   1.084       .  S
C1300      C1301   1.410       .  A
C1300      C1305   1.405       .  A
C1300      C1466   1.490       .  S
C1301      C1302   1.406       .  A
C1301      H1306   1.083       .  S
C1302      C1303   1.400       .  A
C1302      C1511   1.481       .  S
C1303      C1304   1.405       .  A
C1303      H1307   1.084       .  S
C1304      C1305   1.400       .  A
C1304      C1452   1.484       .  S
C1305      H1308   1.084       .  S
C1309      C1310   1.407       .  A
C1309      C1314   1.399       .  A
C1309      C1410   1.476       .  S
C1310      C1311   1.409       .  A
C1310      H1315   1.084       .  S
C1311      C1312   1.406       .  A
C1312      C1313   1.404       .  A
C1312      H1316   1.084       .  S
C1313      C1314   1.398       .  A
C1313      C1424   1.481       .  S
C1314      H1317   1.084       .  S
C1318      C1319   1.406       .  A
C1318      C1323   1.398       .  A
C1318      C1396   1.473       .  S
C1319      C1320   1.411       .  A
C1319      H1324   1.084       .  S
C1320      C1321   1.408       .  A
C1320      C1441   1.493       .  S
C1321      C1322   1.403       .  A
C1321      H1325   1.084       .  S
C1322      C1323   1.395       .  A
C1322      C1382   1.476       .  S
C1323      H1326   1.085       .  S
O1327      C1338   1.289       .  A
O1328      C1339   1.294       .  A
O1328     Eu1362   2.481       .  S
O1329      C1340   1.294       .  A
O1330      C1341   1.297       .  A
O1330     Eu1335   2.497       .  S
O1331      C1341   1.287       .  A
O1331     Eu1365   2.435       .  S
O1332      C1340   1.288       .  A
O1332     Eu2000   2.426       .  S
O1333      C1339   1.286       .  A
O1333     Eu1335   2.429       .  S
O1334      C1338   1.291       .  A
Eu1335     O1345   2.349       .  S
Eu1335     O1336   2.351       .  S
Eu1335     O1343   2.363       .  S
O1336     Eu1365   2.352       .  S
O1336     Eu1362   2.354       .  S
O1337     Eu2000   2.351       .  S
C1338      C1567   1.476       .  S
C1339      C1385   1.466       .  S
C1340      C1480   1.487       .  S
C1341      C1539   1.474       .  S
H1342      O1343   0.966       .  S
O1343     Eu1362   2.353       .  S
H1344      O1345   0.965       .  S
O1345     Eu1363   2.346       .  S
O1345     Eu1365   2.356       .  S
O1346      C1369   1.297       .  A
O1346     Eu1998   2.494       .  S
O1347      C2006   1.292   1_455  A
O1347     Eu1681   2.474   1_455  S
O1348     Eu1364   2.469       .  S
O1349      C1372   1.296       .  A
O1349     Eu1365   2.493       .  S
O1350      C1691   1.296       .  A
O1350     Eu1365   2.493   1_556  S
O1351      C2010   1.294       .  A
O1351     Eu1364   2.481       .  S
O1352     Eu1366   2.484       .  S
O1353      C1376   1.292       .  A
O1353     Eu1366   2.470   1_556  S
O1354      C1375   1.288       .  A
O1354     Eu1364   2.426       .  S
O1355      C2012   1.289   1_554  A
O1355     Eu1365   2.445       .  S
O1356      C1371   1.290       .  A
O1356     Eu1998   2.444       .  S
O1357      C1374   1.285       .  A
O1358      C1373   1.283       .  A
O1358     Eu1681   2.414       .  S
O1359      C1372   1.286       .  A
O1359     Eu1362   2.421       .  S
O1360      C1369   1.284       .  A
O1360     Eu1366   2.422       .  S
O1361      C1370   1.287       .  A
O1361     Eu1684   2.436       .  S
Eu1362     O1982   2.494       .  S
Eu1362     O1992   2.444       .  S
Eu1362     O1380   2.362       .  S
Eu1362     O2004   2.346       .  S
Eu1363     O1665   2.474   1_654  S
Eu1363     O1676   2.414   1_554  S
Eu1363     O1367   2.354       .  S
Eu1363     O2014   2.328       .  S
Eu1364     O1968   2.426   1_545  S
Eu1364     O1973   2.351   1_545  S
Eu1365     O1367   2.358       .  S
Eu1365     O1380   2.358       .  S
Eu1366     O1679   2.436   1_554  S
Eu1366     O2003   2.354   1_545  S
Eu1366     O1378   2.339       .  S
Eu1366     O2016   2.358       .  S
Eu1366     O1368   2.354       .  S
O1367     Eu2002   2.354       .  S
O1368     Eu1998   2.346       .  S
C1369      C1522   1.499       .  S
C1370      C1427   1.466   1_655  S
C1370      O1983   1.292   1_655  A
C1371      C1413   1.496       .  S
C1372      C1497   1.476       .  S
C1373      C1399   1.492       .  S
C1373      O1668   1.296       .  A
C1374      C2409   1.467   1_554  S
C1374      O1987   1.294       .  A
C1375      C1550   1.492       .  S
C1376      C1787   1.475       .  S
C1376      O1991   1.289   1_546  A
O1378     Eu1999   2.328   1_545  S
H1379      O2016   0.966       .  S
O1380     Eu2002   2.358       .  S
O1380      H2015   0.966       .  S
C1381      C1382   1.398       .  A
C1381      C1386   1.405       .  A
C1381      H1388   1.084       .  S
C1382      C1383   1.417       .  A
C1383      C1384   1.402       .  A
C1383      N1390   1.439       .  S
C1384      C1385   1.399       .  A
C1384      H1389   1.084       .  S
C1385      C1386   1.419       .  A
C1386      N1387   1.445       .  S
N1387      O1391   1.263       .  A
N1387      O1392   1.261       .  A
N1390      O1393   1.262       .  A
N1390      O1394   1.263       .  A
C1395      C1396   1.395       .  A
C1395      C1400   1.390       .  A
C1395      H1402   1.085       .  S
C1396      C1397   1.417       .  A
C1397      C1398   1.414       .  A
C1397      N1404   1.443       .  S
C1398      C1399   1.409       .  A
C1398      H1403   1.083       .  S
C1399      C1400   1.422       .  A
C1400      N1401   1.435       .  S
N1401      O1406   1.263       .  A
N1404      O1407   1.262       .  A
N1404      O1408   1.263       .  A
C1409      C1410   1.403       .  A
C1409      C1414   1.408       .  A
C1409      H1416   1.084       .  S
C1411      C1412   1.399       .  A
C1411      N1418   1.441       .  S
C1412      C1413   1.409       .  A
C1412      H1417   1.083       .  S
C1414      N1415   1.434       .  S
N1415      O1419   1.262       .  A
N1415      O1420   1.263       .  A
N1418      O1421   1.262       .  A
N1418      O1422   1.263       .  A
C1423      C1424   1.401       .  A
C1423      C1428   1.405       .  A
C1423      H1430   1.084       .  S
C1425      C1426   1.399       .  A
C1425      N1432   1.436       .  S
C1426      C1427   1.398   1_655  A
C1426      H1431   1.085       .  S
C1428      N1429   1.446       .  S
N1429      O1433   1.263       .  A
N1429      O1434   1.260       .  A
N1432      O1435   1.263       .  A
N1432      O1436   1.262       .  A
C1437      H1444   1.084       .  S
C1438      C1439   1.419       .  A
C1439      C1440   1.404       .  A
C1439      N1446   1.438       .  S
C1440      C1441   1.403       .  A
C1440      H1445   1.084       .  S
C1441      C1442   1.420       .  A
C1442      N1443   1.439   1_655  S
N1443      O1448   1.263       .  A
N1446      O1449   1.263       .  A
N1446      O1450   1.263       .  A
C1451      C1452   1.409       .  A
C1451      C2410   1.410   1_545  A
C1451      H2094   1.083   1_545  S
C1452      C1453   1.410       .  A
C1453      C1454   1.396       .  A
C1453      N1460   1.438       .  S
C1454      C1455   1.401       .  A
C1454      H1459   1.079       .  S
C1455      C2410   1.416   1_545  A
C1455      C2328   1.467       .  S
C1456      C2405   1.410   1_554  A
C1456      C2409   1.416   1_554  A
C1456      N1457   1.446       .  S
N1457      O1461   1.263       .  A
N1457      O1462   1.262       .  A
H1458      C2087   1.083       .  S
N1460      O1463   1.263       .  A
N1460      O1464   1.263       .  A
C1465      C1466   1.409       .  A
C1465      C1470   1.407       .  A
C1465      H1472   1.083       .  S
C1466      C1467   1.416   1_545  A
C1467      C1468   1.400       .  A
C1467      N2110   1.436       .  S
C1468      C1469   1.402   1_565  A
C1468      H2109   1.085       .  S
C1469      C1470   1.416       .  A
C1469      C1694   1.475       .  S
C1470      N1789   1.442       .  S
N1471      C1788   1.442   1_554  S
N1471      O1475   1.263       .  A
N1471      O1476   1.262       .  A
H1473      C2104   1.085       .  S
N1474      C2103   1.436       .  S
N1474      O2113   1.263       .  A
N1474      O1478   1.262       .  A
O1477      N2110   1.263       .  A
C1479      C1480   1.405       .  A
C1479      C1484   1.394       .  A
C1479      H1486   1.083       .  S
C1480      C1481   1.418       .  A
C1481      C1482   1.413       .  A
C1481      N1488   1.435       .  S
C1482      C1483   1.406       .  A
C1482      H1487   1.084       .  S
C1483      C1484   1.413       .  A
C1484      N1485   1.441       .  S
N1485      O1489   1.262       .  A
N1485      O1490   1.263       .  A
N1488      O1491   1.262       .  A
N1488      O1492   1.263       .  A
C1493      C1494   1.413       .  A
C1493      C1498   1.408       .  A
C1493      H1500   1.082       .  S
C1494      C1495   1.413       .  A
C1495      C1496   1.398       .  A
C1495      N1502   1.439       .  S
C1496      C1497   1.404       .  A
C1496      H1501   1.080       .  S
C1497      C1498   1.412       .  A
C1498      N1499   1.440       .  S
N1499      O1503   1.263       .  A
N1499      O1504   1.262       .  A
N1502      O1505   1.262       .  A
N1502      O1506   1.263       .  A
C1507      C2144   1.405   1_545  A
C1507      C1512   1.412       .  A
C1507      H1514   1.083       .  S
C1508      C2143   1.405       .  A
C1508      C1509   1.418       .  A
C1509      C1510   1.405       .  A
C1509      N1516   1.445       .  S
C1510      C2147   1.402       .  A
C1510      H1515   1.084       .  S
C1511      C2146   1.402   1_545  A
C1511      C1512   1.420       .  A
C1512      N1513   1.448       .  S
N1513      O1517   1.263       .  A
N1513      O1518   1.262       .  A
N1516      O1519   1.261       .  A
N1516      O1520   1.263       .  A
C1521      C1522   1.410       .  A
C1521      C1526   1.418       .  A
C1521      H1528   1.082       .  S
C1522      C1523   1.422       .  A
C1523      C1524   1.389       .  A
C1523      N1530   1.431       .  S
C1524      C1525   1.393       .  A
C1524      H1529   1.086       .  S
C1525      C1526   1.420       .  A
C1526      N1527   1.447       .  S
N1527      O1531   1.263       .  A
N1527      O1532   1.262       .  A
N1530      O1533   1.262       .  A
N1530      O1534   1.261       .  A
C1535      C1536   1.404       .  A
C1535      C1540   1.409       .  A
C1535      H1542   1.084       .  S
C1536      C1537   1.408       .  A
C1537      C1538   1.402       .  A
C1537      N1544   1.441       .  S
C1538      C1539   1.403       .  A
C1538      H1543   1.076       .  S
C1539      C1540   1.420       .  A
C1540      N1541   1.447       .  S
N1541      O1545   1.263       .  A
N1541      O1546   1.262       .  A
N1544      O1547   1.263       .  A
N1544      O1548   1.263       .  A
C1549      C1550   1.406       .  A
C1549      C1554   1.387       .  A
C1549      H1556   1.085       .  S
C1550      C1551   1.425       .  A
C1551      C1870   1.414       .  A
C1551      N1876   1.439   1_554  S
C1552      C1869   1.414       .  A
C1552      C1871   1.407       .  A
C1552      H1557   1.083       .  S
C1553      C1870   1.407       .  A
C1553      C1554   1.406       .  A
C1553      C1595   1.487       .  S
C1554      N1555   1.428       .  S
N1555      O1559   1.261       .  A
N1555      O1560   1.262       .  A
N1558      C1869   1.439       .  S
N1558      O1562   1.263       .  A
C1563      C1564   1.407       .  A
C1563      C1568   1.407       .  A
C1563      H1570   1.083       .  S
C1564      C1565   1.420       .  A
C1564      C1591   1.493       .  S
C1565      C1566   1.397       .  A
C1565      N1572   1.437       .  S
C1566      C1567   1.400       .  A
C1567      C1568   1.416       .  A
C1568      N1569   1.438       .  S
N1569      O1573   1.263       .  A
N1569      O1574   1.261   1_554  A
N1572      O1575   1.262       .  A
C1577      C1578   1.401       .  A
C1577      C1582   1.404       .  A
C1577      H1584   1.084       .  S
C1578      C1579   1.419       .  A
C1579      C1580   1.408       .  A
C1579      N1586   1.440       .  S
C1580      C1581   1.402       .  A
C1580      H1903   1.084       .  S
C1581      C1582   1.414       .  A
C1582      N1583   1.438       .  S
N1583      O1587   1.263       .  A
N1583      O1588   1.262       .  A
H1585      C1898   1.084       .  S
N1586      O1589   1.263       .  A
N1586      O1590   1.263   1_554  A
C1591      C1596   1.406       .  A
C1592      C1593   1.404       .  A
C1592      H1597   1.083       .  S
C1593      C1594   1.403       .  A
C1593      C1899   1.484       .  S
C1594      H1598   1.084       .  S
C1595      C1596   1.399       .  A
C1596      H1599   1.083       .  S
C1600      C1601   1.405       .  A
C1600      C1605   1.402       .  A
C1600      C1843   1.475       .  S
C1601      C1602   1.407       .  A
C1601      H1606   1.084       .  S
C1602      C1603   1.405       .  A
C1602      C1896   1.484       .  S
C1603      C1604   1.403       .  A
C1603      H1607   1.084       .  S
C1604      C1605   1.398       .  A
C1604      C1854   1.477       .  S
C1605      H1608   1.085       .  S
C1609      C1610   1.406       .  A
C1609      C1614   1.404       .  A
C1609      C1801   1.483       .  S
C1610      C1611   1.406       .  A
C1610      H1615   1.084       .  S
C1611      C1612   1.404       .  A
C1611      C1826   1.483       .  S
C1612      C1613   1.409       .  A
C1612      H1616   1.083       .  S
C1613      C1614   1.402       .  A
C1613      C1812   1.495       .  S
C1614      H1617   1.084       .  S
C1618      C1619   1.410       .  A
C1618      C1623   1.405       .  A
C1618      C1784   1.490       .  S
C1619      C1620   1.406       .  A
C1619      H1624   1.083       .  S
C1620      C1621   1.400       .  A
C1620      C1829   1.481       .  S
C1621      C1622   1.405       .  A
C1621      H1625   1.084       .  S
C1622      C1623   1.400       .  A
C1622      C1770   1.484       .  S
C1623      H1626   1.084       .  S
C1627      C1628   1.407       .  A
C1627      C1632   1.399       .  A
C1627      C1728   1.476       .  S
C1628      C1629   1.409       .  A
C1628      H1633   1.084       .  S
C1629      C1630   1.406       .  A
C1630      C1631   1.404       .  A
C1630      H1634   1.084       .  S
C1631      C1632   1.398       .  A
C1631      C1742   1.481       .  S
C1632      H1635   1.084       .  S
C1636      C1637   1.406       .  A
C1636      C1641   1.398       .  A
C1636      C1714   1.473       .  S
C1637      C1638   1.411       .  A
C1637      H1642   1.084       .  S
C1638      C1639   1.408       .  A
C1638      C1759   1.493       .  S
C1639      C1640   1.403       .  A
C1639      H1643   1.084       .  S
C1640      C1641   1.395       .  A
C1640      C1700   1.476       .  S
C1641      H1644   1.085       .  S
O1645      C1656   1.289       .  A
O1646      C1657   1.294       .  A
O1646     Eu1680   2.481       .  S
O1647      C1658   1.294       .  A
O1648      C1659   1.297       .  A
O1648     Eu1653   2.497       .  S
O1649      C1659   1.287       .  A
O1649     Eu1683   2.435       .  S
O1650      C1658   1.288       .  A
O1650     Eu2318   2.426       .  S
O1651      C1657   1.286       .  A
O1651     Eu1653   2.429       .  S
O1652      C1656   1.291       .  A
Eu1653     O1663   2.349       .  S
Eu1653     O1654   2.351       .  S
Eu1653     O1661   2.363       .  S
O1654     Eu1683   2.352       .  S
O1654     Eu1680   2.354       .  S
O1655     Eu2318   2.351       .  S
C1656      C1885   1.476       .  S
C1657      C1703   1.466       .  S
C1658      C1798   1.487       .  S
C1659      C1857   1.474       .  S
H1660      O1661   0.966       .  S
O1661     Eu1680   2.353       .  S
H1662      O1663   0.965       .  S
O1663     Eu1681   2.346       .  S
O1663     Eu1683   2.356       .  S
O1664      C1687   1.297       .  A
O1664     Eu2316   2.494       .  S
O1665      C2324   1.292   1_455  A
O1666     Eu1682   2.469       .  S
O1667      C1690   1.296       .  A
O1667     Eu1683   2.493       .  S
O1668     Eu1683   2.493       .  S
O1669      C2328   1.294       .  A
O1669     Eu1682   2.481       .  S
O1670     Eu1684   2.484       .  S
O1671      C1694   1.292       .  A
O1671     Eu1684   2.470       .  S
O1672      C1693   1.288       .  A
O1672     Eu1682   2.426       .  S
O1673      C2330   1.289       .  A
O1673     Eu1683   2.445       .  S
O1674      C1689   1.290       .  A
O1674     Eu2316   2.444       .  S
O1675      C1692   1.285       .  A
O1676      C1691   1.283       .  A
O1677      C1690   1.286       .  A
O1677     Eu1680   2.421       .  S
O1678      C1687   1.284       .  A
O1678     Eu1684   2.422       .  S
O1679      C1688   1.287       .  A
Eu1680     O2300   2.494       .  S
Eu1680     O2310   2.444       .  S
Eu1680     O1698   2.362       .  S
Eu1680     O2322   2.346       .  S
Eu1681     O1685   2.354       .  S
Eu1681     O2332   2.328       .  S
Eu1682     O2286   2.426   1_545  S
Eu1682     O2291   2.351   1_545  S
Eu1683     O1685   2.358       .  S
Eu1683     O1698   2.358       .  S
Eu1684     O2321   2.354   1_545  S
Eu1684     O1696   2.339       .  S
Eu1684     O2334   2.358       .  S
Eu1684     O1686   2.354       .  S
O1685     Eu2320   2.354       .  S
O1686     Eu2316   2.346       .  S
C1687      C1840   1.499       .  S
C1688      C1745   1.466   1_655  S
C1688      O2301   1.292   1_655  A
C1689      C1731   1.496       .  S
C1690      C1815   1.476       .  S
C1691      C1717   1.492       .  S
C1692      C2091   1.467       .  S
C1692      O2305   1.294       .  A
C1693      C1868   1.492       .  S
C1694      O2309   1.289   1_545  A
O1696     Eu2317   2.328   1_545  S
H1697      O2334   0.966       .  S
O1698     Eu2320   2.358       .  S
O1698      H2333   0.966       .  S
C1699      C1700   1.398       .  A
C1699      C1704   1.405       .  A
C1699      H1706   1.084       .  S
C1700      C1701   1.417       .  A
C1701      C1702   1.402       .  A
C1701      N1708   1.439       .  S
C1702      C1703   1.399       .  A
C1702      H1707   1.084       .  S
C1703      C1704   1.419       .  A
C1704      N1705   1.445       .  S
N1705      O1709   1.263       .  A
N1705      O1710   1.261       .  A
N1708      O1711   1.262       .  A
N1708      O1712   1.263       .  A
C1713      C1714   1.395       .  A
C1713      C1718   1.390       .  A
C1713      H1720   1.085       .  S
C1714      C1715   1.417       .  A
C1715      C1716   1.414       .  A
C1715      N1722   1.443       .  S
C1716      C1717   1.409       .  A
C1716      H1721   1.083       .  S
C1717      C1718   1.422       .  A
C1718      N1719   1.435       .  S
N1719      O1724   1.263       .  A
N1722      O1725   1.262       .  A
N1722      O1726   1.263       .  A
C1727      C1728   1.403       .  A
C1727      C1732   1.408       .  A
C1727      H1734   1.084       .  S
C1729      C1730   1.399       .  A
C1729      N1736   1.441       .  S
C1730      C1731   1.409       .  A
C1730      H1735   1.083       .  S
C1732      N1733   1.434       .  S
N1733      O1737   1.262       .  A
N1733      O1738   1.263       .  A
N1736      O1739   1.262       .  A
N1736      O1740   1.263       .  A
C1741      C1742   1.401       .  A
C1741      C1746   1.405       .  A
C1741      H1748   1.084       .  S
C1743      C1744   1.399       .  A
C1743      N1750   1.436       .  S
C1744      C1745   1.398   1_655  A
C1744      H1749   1.085       .  S
C1746      N1747   1.446       .  S
N1747      O1751   1.263       .  A
N1747      O1752   1.260       .  A
N1750      O1753   1.263       .  A
N1750      O1754   1.262       .  A
C1755      H1762   1.084       .  S
C1756      C1757   1.419       .  A
C1757      C1758   1.404       .  A
C1757      N1764   1.438       .  S
C1758      C1759   1.403       .  A
C1758      H1763   1.084       .  S
C1759      C1760   1.420       .  A
C1760      N1761   1.439   1_655  S
N1761      O1766   1.263       .  A
N1764      O1767   1.263       .  A
N1764      O1768   1.263       .  A
C1769      C1770   1.409       .  A
C1769      C2092   1.410   1_546  A
C1769      H2412   1.083   1_545  S
C1770      C1771   1.410       .  A
C1771      C1772   1.396       .  A
C1771      N1778   1.438       .  S
C1772      C1773   1.401       .  A
C1772      H1777   1.079       .  S
C1773      C2092   1.416   1_546  A
C1773      C2010   1.467   1_556  S
C1774      C2087   1.410       .  A
C1774      C2091   1.416       .  A
C1774      N1775   1.446       .  S
N1775      O1779   1.263       .  A
N1775      O1780   1.262       .  A
H1776      C2405   1.083       .  S
N1778      O1781   1.263       .  A
N1778      O1782   1.263       .  A
C1783      C1784   1.409       .  A
C1783      C1788   1.407       .  A
C1783      H1790   1.083       .  S
C1784      C1785   1.416   1_545  A
C1785      C1786   1.400       .  A
C1785      N2428   1.436       .  S
C1786      C1787   1.402   1_565  A
C1786      H2427   1.085       .  S
C1787      C1788   1.416       .  A
N1789      O1793   1.263       .  A
N1789      O1794   1.262       .  A
H1791      C2422   1.085       .  S
N1792      C2421   1.436       .  S
N1792      O2431   1.263       .  A
N1792      O1796   1.262       .  A
O1795      N2428   1.263       .  A
C1797      C1798   1.405       .  A
C1797      C1802   1.394       .  A
C1797      H1804   1.083       .  S
C1798      C1799   1.418       .  A
C1799      C1800   1.413       .  A
C1799      N1806   1.435       .  S
C1800      C1801   1.406       .  A
C1800      H1805   1.084       .  S
C1801      C1802   1.413       .  A
C1802      N1803   1.441       .  S
N1803      O1807   1.262       .  A
N1803      O1808   1.263       .  A
N1806      O1809   1.262       .  A
N1806      O1810   1.263       .  A
C1811      C1812   1.413       .  A
C1811      C1816   1.408       .  A
C1811      H1818   1.082       .  S
C1812      C1813   1.413       .  A
C1813      C1814   1.398       .  A
C1813      N1820   1.439       .  S
C1814      C1815   1.404       .  A
C1814      H1819   1.080       .  S
C1815      C1816   1.412       .  A
C1816      N1817   1.440       .  S
N1817      O1821   1.263       .  A
N1817      O1822   1.262       .  A
N1820      O1823   1.262       .  A
N1820      O1824   1.263       .  A
C1825      C2462   1.405   1_545  A
C1825      C1830   1.412       .  A
C1825      H1832   1.083       .  S
C1826      C2461   1.405       .  A
C1826      C1827   1.418       .  A
C1827      C1828   1.405       .  A
C1827      N1834   1.445       .  S
C1828      C2465   1.402       .  A
C1828      H1833   1.084       .  S
C1829      C2464   1.402   1_545  A
C1829      C1830   1.420       .  A
C1830      N1831   1.448       .  S
N1831      O1835   1.263       .  A
N1831      O1836   1.262       .  A
N1834      O1837   1.261       .  A
N1834      O1838   1.263       .  A
C1839      C1840   1.410       .  A
C1839      C1844   1.418       .  A
C1839      H1846   1.082       .  S
C1840      C1841   1.422       .  A
C1841      C1842   1.389       .  A
C1841      N1848   1.431       .  S
C1842      C1843   1.393       .  A
C1842      H1847   1.086       .  S
C1843      C1844   1.420       .  A
C1844      N1845   1.447       .  S
N1845      O1849   1.263       .  A
N1845      O1850   1.262       .  A
N1848      O1851   1.262       .  A
N1848      O1852   1.261       .  A
C1853      C1854   1.404       .  A
C1853      C1858   1.409       .  A
C1853      H1860   1.084       .  S
C1854      C1855   1.408       .  A
C1855      C1856   1.402       .  A
C1855      N1862   1.441       .  S
C1856      C1857   1.403       .  A
C1856      H1861   1.076       .  S
C1857      C1858   1.420       .  A
C1858      N1859   1.447       .  S
N1859      O1863   1.263       .  A
N1859      O1864   1.262       .  A
N1862      O1865   1.263       .  A
N1862      O1866   1.263       .  A
C1867      C1868   1.406       .  A
C1867      C1872   1.387       .  A
C1867      H1874   1.085       .  S
C1868      C1869   1.425       .  A
C1870      H1875   1.083   1_554  S
C1871      C1872   1.406       .  A
C1872      N1873   1.428       .  S
N1873      O1877   1.261       .  A
N1873      O1878   1.262       .  A
N1876      O1880   1.263       .  A
C1881      C1882   1.407       .  A
C1881      C1886   1.407       .  A
C1881      H1888   1.083       .  S
C1882      C1883   1.420       .  A
C1883      C1884   1.397       .  A
C1883      N1890   1.437       .  S
C1884      C1885   1.400       .  A
C1885      C1886   1.416       .  A
C1886      N1887   1.438       .  S
N1887      O1891   1.263       .  A
N1887      O1892   1.261       .  A
N1890      O1893   1.262       .  A
C1895      C1896   1.401       .  A
C1895      C1900   1.404       .  A
C1895      H1902   1.084       .  S
C1896      C1897   1.419       .  A
C1897      C1898   1.408       .  A
C1897      N1904   1.440       .  S
C1898      C1899   1.402       .  A
C1899      C1900   1.414       .  A
C1900      N1901   1.438       .  S
N1901      O1905   1.263       .  A
N1901      O1906   1.262       .  A
N1904      O1907   1.263       .  A
N1904      O1908   1.263       .  A
C1909      C2228   1.411       .  A
C1909      C1914   1.406       .  A
C1909      C2518   1.493       .  S
C1910      C2227   1.411       .  A
C1910      C1911   1.404       .  A
C1910      H1915   1.083       .  S
C1911      C1912   1.403       .  A
C1911      C2217   1.484       .  S
C1912      C2231   1.406       .  A
C1912      H1916   1.084       .  S
C1913      C2230   1.406       .  A
C1913      C1914   1.399       .  A
C1913      C2507   1.487       .  S
C1914      H1917   1.083       .  S
C1918      C1919   1.405       .  A
C1918      C1923   1.402       .  A
C1918      C2161   1.475       .  S
C1919      C1920   1.407       .  A
C1919      H1924   1.084       .  S
C1920      C1921   1.405       .  A
C1920      C2214   1.484       .  S
C1921      C1922   1.403       .  A
C1921      H1925   1.084       .  S
C1922      C1923   1.398       .  A
C1922      C2172   1.477       .  S
C1923      H1926   1.085       .  S
C1927      C1928   1.406       .  A
C1927      C1932   1.404       .  A
C1927      C2119   1.483       .  S
C1928      C1929   1.406       .  A
C1928      H1933   1.084       .  S
C1929      C1930   1.404       .  A
C1929      C2144   1.483       .  S
C1930      C1931   1.409       .  A
C1930      H1934   1.083       .  S
C1931      C1932   1.402       .  A
C1931      C2130   1.495       .  S
C1932      H1935   1.084       .  S
C1936      C1937   1.410       .  A
C1936      C1941   1.405       .  A
C1936      C2102   1.490       .  S
C1937      C1938   1.406       .  A
C1937      H1942   1.083       .  S
C1938      C1939   1.400       .  A
C1938      C2147   1.481       .  S
C1939      C1940   1.405       .  A
C1939      H1943   1.084       .  S
C1940      C1941   1.400       .  A
C1940      C2088   1.484       .  S
C1941      H1944   1.084       .  S
C1945      C1946   1.407       .  A
C1945      C1950   1.399       .  A
C1945      C2046   1.476       .  S
C1946      C1947   1.409       .  A
C1946      H1951   1.084       .  S
C1947      C1948   1.406       .  A
C1948      C1949   1.404       .  A
C1948      H1952   1.084       .  S
C1949      C1950   1.398       .  A
C1949      C2060   1.481       .  S
C1950      H1953   1.084       .  S
C1954      C1955   1.406       .  A
C1954      C1959   1.398       .  A
C1954      C2032   1.473       .  S
C1955      C1956   1.411       .  A
C1955      H1960   1.084       .  S
C1956      C1957   1.408       .  A
C1956      C2077   1.493       .  S
C1957      C1958   1.403       .  A
C1957      H1961   1.084       .  S
C1958      C1959   1.395       .  A
C1958      C2018   1.476       .  S
C1959      H1962   1.085       .  S
O1963      C1974   1.289       .  A
O1964      C1975   1.294       .  A
O1964     Eu1998   2.481   1_565  S
O1965      C1976   1.294       .  A
O1966      C1977   1.297       .  A
O1966     Eu1971   2.497       .  S
O1967      C1977   1.287       .  A
O1967     Eu2001   2.435       .  S
O1968      C1976   1.288       .  A
O1969      C1975   1.286       .  A
O1969     Eu1971   2.429       .  S
O1970      C1974   1.291       .  A
Eu1971     O1981   2.349       .  S
Eu1971     O1972   2.351       .  S
Eu1971     O1979   2.363       .  S
O1972     Eu2001   2.352       .  S
O1972     Eu1998   2.354   1_565  S
C1974      C2203   1.476       .  S
C1975      C2021   1.466       .  S
C1976      C2116   1.487       .  S
C1977      C2175   1.474       .  S
H1978      O1979   0.966       .  S
O1979     Eu1998   2.353   1_565  S
H1980      O1981   0.965       .  S
O1981     Eu1999   2.346       .  S
O1981     Eu2001   2.356       .  S
O1982      C2005   1.297       .  A
O1983     Eu2317   2.474   1_445  S
O1984     Eu2000   2.469       .  S
O1985      C2008   1.296       .  A
O1985     Eu2001   2.493       .  S
O1986      C2327   1.296       .  A
O1986     Eu2001   2.493   1_556  S
O1987     Eu2000   2.481       .  S
O1988     Eu2002   2.484       .  S
O1989      C2012   1.292       .  A
O1989     Eu2002   2.470   1_556  S
O1990      C2011   1.288       .  A
O1990     Eu2000   2.426       .  S
O1991     Eu2001   2.445       .  S
O1992      C2007   1.290       .  A
O1993      C2010   1.285   1_565  A
O1994      C2009   1.283       .  A
O1994     Eu2317   2.414       .  S
O1995      C2008   1.286       .  A
O1995     Eu1998   2.421   1_565  S
O1996      C2005   1.284       .  A
O1996     Eu2002   2.422       .  S
O1997      C2006   1.287       .  A
O1997     Eu2320   2.436       .  S
Eu1998     O2016   2.362       .  S
Eu1999     O2301   2.474   1_664  S
Eu1999     O2312   2.414   1_554  S
Eu1999     O2003   2.354       .  S
Eu2001     O2003   2.358       .  S
Eu2001     O2016   2.358   1_565  S
Eu2002     O2315   2.436   1_554  S
Eu2002     O2014   2.339       .  S
Eu2002     O2004   2.354       .  S
C2005      C2158   1.499       .  S
C2006      C2063   1.466   1_655  S
C2007      C2049   1.496       .  S
C2008      C2133   1.476       .  S
C2009      C2035   1.492       .  S
C2009      O2304   1.296       .  A
C2011      C2186   1.492       .  S
C2012      C2423   1.475       .  S
C2017      C2018   1.398       .  A
C2017      C2022   1.405       .  A
C2017      H2024   1.084       .  S
C2018      C2019   1.417       .  A
C2019      C2020   1.402       .  A
C2019      N2026   1.439       .  S
C2020      C2021   1.399       .  A
C2020      H2025   1.084       .  S
C2021      C2022   1.419       .  A
C2022      N2023   1.445       .  S
N2023      O2027   1.263       .  A
N2023      O2028   1.261       .  A
N2026      O2029   1.262       .  A
N2026      O2030   1.263       .  A
C2031      C2032   1.395       .  A
C2031      C2036   1.390       .  A
C2031      H2038   1.085       .  S
C2032      C2033   1.417       .  A
C2033      C2034   1.414       .  A
C2033      N2040   1.443       .  S
C2034      C2035   1.409       .  A
C2034      H2039   1.083       .  S
C2035      C2036   1.422       .  A
C2036      N2037   1.435       .  S
N2037      O2042   1.263       .  A
N2040      O2043   1.262       .  A
N2040      O2044   1.263       .  A
C2045      C2046   1.403       .  A
C2045      C2050   1.408       .  A
C2045      H2052   1.084       .  S
C2047      C2048   1.399       .  A
C2047      N2054   1.441       .  S
C2048      C2049   1.409       .  A
C2048      H2053   1.083       .  S
C2050      N2051   1.434       .  S
N2051      O2055   1.262       .  A
N2051      O2056   1.263       .  A
N2054      O2057   1.262       .  A
N2054      O2058   1.263       .  A
C2059      C2060   1.401       .  A
C2059      C2064   1.405       .  A
C2059      H2066   1.084       .  S
C2061      C2062   1.399       .  A
C2061      N2068   1.436       .  S
C2062      C2063   1.398   1_655  A
C2062      H2067   1.085       .  S
C2064      N2065   1.446       .  S
N2065      O2069   1.263       .  A
N2065      O2070   1.260       .  A
N2068      O2071   1.263       .  A
N2068      O2072   1.262       .  A
C2073      H2080   1.084       .  S
C2074      C2075   1.419       .  A
C2075      C2076   1.404       .  A
C2075      N2082   1.438       .  S
C2076      C2077   1.403       .  A
C2076      H2081   1.084       .  S
C2077      C2078   1.420       .  A
C2078      N2079   1.439   1_655  S
N2079      O2084   1.263       .  A
N2082      O2085   1.263       .  A
N2082      O2086   1.263       .  A
C2087      C2088   1.409       .  A
C2088      C2089   1.410       .  A
C2089      C2090   1.396       .  A
C2089      N2096   1.438       .  S
C2090      C2091   1.401       .  A
C2090      H2095   1.079       .  S
C2092      N2093   1.446       .  S
N2093      O2097   1.263       .  A
N2093      O2098   1.262       .  A
N2096      O2099   1.263       .  A
N2096      O2100   1.263       .  A
C2101      C2102   1.409       .  A
C2101      C2106   1.407       .  A
C2101      H2108   1.083       .  S
C2102      C2103   1.416       .  A
C2103      C2104   1.400       .  A
C2104      C2105   1.402       .  A
C2105      C2106   1.416       .  A
C2105      C2330   1.475       .  S
C2106      N2425   1.442       .  S
N2107      C2424   1.442   1_554  S
N2107      O2111   1.263       .  A
N2107      O2112   1.262       .  A
N2110      O2114   1.262       .  A
C2115      C2116   1.405       .  A
C2115      C2120   1.394       .  A
C2115      H2122   1.083       .  S
C2116      C2117   1.418       .  A
C2117      C2118   1.413       .  A
C2117      N2124   1.435       .  S
C2118      C2119   1.406       .  A
C2118      H2123   1.084       .  S
C2119      C2120   1.413       .  A
C2120      N2121   1.441       .  S
N2121      O2125   1.262       .  A
N2121      O2126   1.263   1_565  A
N2124      O2127   1.262       .  A
N2124      O2128   1.263       .  A
C2129      C2130   1.413       .  A
C2129      C2134   1.408       .  A
C2129      H2136   1.082       .  S
C2130      C2131   1.413       .  A
C2131      C2132   1.398       .  A
C2131      N2138   1.439       .  S
C2132      C2133   1.404       .  A
C2132      H2137   1.080       .  S
C2133      C2134   1.412       .  A
C2134      N2135   1.440       .  S
N2135      O2139   1.263       .  A
N2135      O2140   1.262       .  A
N2138      O2141   1.262       .  A
N2138      O2142   1.263       .  A
C2143      C2148   1.412       .  A
C2143      H2150   1.083       .  S
C2144      C2145   1.418       .  A
C2145      C2146   1.405       .  A
C2145      N2152   1.445       .  S
C2146      H2151   1.084       .  S
C2147      C2148   1.420       .  A
C2148      N2149   1.448       .  S
N2149      O2153   1.263       .  A
N2149      O2154   1.262       .  A
N2152      O2155   1.261       .  A
N2152      O2156   1.263       .  A
C2157      C2158   1.410       .  A
C2157      C2162   1.418       .  A
C2157      H2164   1.082       .  S
C2158      C2159   1.422       .  A
C2159      C2160   1.389       .  A
C2159      N2166   1.431       .  S
C2160      C2161   1.393       .  A
C2160      H2165   1.086       .  S
C2161      C2162   1.420       .  A
C2162      N2163   1.447       .  S
N2163      O2167   1.263       .  A
N2163      O2168   1.262       .  A
N2166      O2169   1.262       .  A
N2166      O2170   1.261       .  A
C2171      C2172   1.404       .  A
C2171      C2176   1.409       .  A
C2171      H2178   1.084       .  S
C2172      C2173   1.408       .  A
C2173      C2174   1.402       .  A
C2173      N2180   1.441       .  S
C2174      C2175   1.403       .  A
C2174      H2179   1.076       .  S
C2175      C2176   1.420       .  A
C2176      N2177   1.447       .  S
N2177      O2181   1.263       .  A
N2177      O2182   1.262       .  A
N2180      O2183   1.263       .  A
N2180      O2184   1.263       .  A
C2185      C2186   1.406       .  A
C2185      C2190   1.387       .  A
C2185      H2192   1.085       .  S
C2186      C2187   1.425       .  A
C2187      C2506   1.414       .  A
C2187      N2512   1.439   1_554  S
C2188      C2505   1.414       .  A
C2188      C2507   1.407       .  A
C2188      H2193   1.083       .  S
C2189      C2506   1.407       .  A
C2189      C2190   1.406       .  A
C2189      C2231   1.487       .  S
C2190      N2191   1.428       .  S
N2191      O2195   1.261       .  A
N2191      O2196   1.262       .  A
N2194      C2505   1.439       .  S
N2194      O2198   1.263       .  A
C2199      C2200   1.407       .  A
C2199      C2204   1.407       .  A
C2199      H2206   1.083       .  S
C2200      C2201   1.420       .  A
C2200      C2227   1.493       .  S
C2201      C2202   1.397       .  A
C2201      N2208   1.437       .  S
C2202      C2203   1.400       .  A
C2203      C2204   1.416       .  A
C2204      N2205   1.438       .  S
N2205      O2209   1.263       .  A
N2205      O2210   1.261   1_554  A
N2208      O2211   1.262       .  A
C2213      C2214   1.401       .  A
C2213      C2218   1.404       .  A
C2213      H2220   1.084       .  S
C2214      C2215   1.419       .  A
C2215      C2216   1.408       .  A
C2215      N2222   1.440       .  S
C2216      C2217   1.402       .  A
C2216      H2539   1.084       .  S
C2217      C2218   1.414       .  A
C2218      N2219   1.438       .  S
N2219      O2223   1.263       .  A
N2219      O2224   1.262       .  A
H2221      C2534   1.084       .  S
N2222      O2225   1.263       .  A
N2222      O2226   1.263   1_554  A
C2227      C2232   1.406       .  A
C2228      C2229   1.404       .  A
C2228      H2233   1.083       .  S
C2229      C2230   1.403       .  A
C2229      C2535   1.484       .  S
C2230      H2234   1.084       .  S
C2231      C2232   1.399       .  A
C2232      H2235   1.083       .  S
C2236      C2237   1.405       .  A
C2236      C2241   1.402       .  A
C2236      C2479   1.475       .  S
C2237      C2238   1.407       .  A
C2237      H2242   1.084       .  S
C2238      C2239   1.405       .  A
C2238      C2532   1.484       .  S
C2239      C2240   1.403       .  A
C2239      H2243   1.084       .  S
C2240      C2241   1.398       .  A
C2240      C2490   1.477       .  S
C2241      H2244   1.085       .  S
C2245      C2246   1.406       .  A
C2245      C2250   1.404       .  A
C2245      C2437   1.483       .  S
C2246      C2247   1.406       .  A
C2246      H2251   1.084       .  S
C2247      C2248   1.404       .  A
C2247      C2462   1.483       .  S
C2248      C2249   1.409       .  A
C2248      H2252   1.083       .  S
C2249      C2250   1.402       .  A
C2249      C2448   1.495       .  S
C2250      H2253   1.084       .  S
C2254      C2255   1.410       .  A
C2254      C2259   1.405       .  A
C2254      C2420   1.490       .  S
C2255      C2256   1.406       .  A
C2255      H2260   1.083       .  S
C2256      C2257   1.400       .  A
C2256      C2465   1.481       .  S
C2257      C2258   1.405       .  A
C2257      H2261   1.084       .  S
C2258      C2259   1.400       .  A
C2258      C2406   1.484       .  S
C2259      H2262   1.084       .  S
C2263      C2264   1.407       .  A
C2263      C2268   1.399       .  A
C2263      C2364   1.476       .  S
C2264      C2265   1.409       .  A
C2264      H2269   1.084       .  S
C2265      C2266   1.406       .  A
C2266      C2267   1.404       .  A
C2266      H2270   1.084       .  S
C2267      C2268   1.398       .  A
C2267      C2378   1.481       .  S
C2268      H2271   1.084       .  S
C2272      C2273   1.406       .  A
C2272      C2277   1.398       .  A
C2272      C2350   1.473       .  S
C2273      C2274   1.411       .  A
C2273      H2278   1.084       .  S
C2274      C2275   1.408       .  A
C2274      C2395   1.493       .  S
C2275      C2276   1.403       .  A
C2275      H2279   1.084       .  S
C2276      C2277   1.395       .  A
C2276      C2336   1.476       .  S
C2277      H2280   1.085       .  S
O2281      C2292   1.289       .  A
O2282      C2293   1.294       .  A
O2282     Eu2316   2.481   1_565  S
O2283      C2294   1.294       .  A
O2284      C2295   1.297       .  A
O2284     Eu2289   2.497       .  S
O2285      C2295   1.287       .  A
O2285     Eu2319   2.435       .  S
O2286      C2294   1.288       .  A
O2287      C2293   1.286       .  A
O2287     Eu2289   2.429       .  S
O2288      C2292   1.291       .  A
Eu2289     O2299   2.349       .  S
Eu2289     O2290   2.351       .  S
Eu2289     O2297   2.363       .  S
O2290     Eu2319   2.352       .  S
O2290     Eu2316   2.354   1_565  S
C2292      C2521   1.476       .  S
C2293      C2339   1.466       .  S
C2294      C2434   1.487       .  S
C2295      C2493   1.474       .  S
H2296      O2297   0.966       .  S
O2297     Eu2316   2.353   1_565  S
H2298      O2299   0.965       .  S
O2299     Eu2317   2.346       .  S
O2299     Eu2319   2.356       .  S
O2300      C2323   1.297       .  A
O2302     Eu2318   2.469       .  S
O2303      C2326   1.296       .  A
O2303     Eu2319   2.493       .  S
O2304     Eu2319   2.493       .  S
O2305     Eu2318   2.481       .  S
O2306     Eu2320   2.484       .  S
O2307      C2330   1.292       .  A
O2307     Eu2320   2.470       .  S
O2308      C2329   1.288       .  A
O2308     Eu2318   2.426       .  S
O2309     Eu2319   2.445       .  S
O2310      C2325   1.290       .  A
O2311      C2328   1.285   1_565  A
O2312      C2327   1.283       .  A
O2313      C2326   1.286       .  A
O2313     Eu2316   2.421   1_565  S
O2314      C2323   1.284       .  A
O2314     Eu2320   2.422       .  S
O2315      C2324   1.287       .  A
Eu2316     O2334   2.362       .  S
Eu2317     O2321   2.354       .  S
Eu2319     O2321   2.358       .  S
Eu2319     O2334   2.358   1_565  S
Eu2320     O2332   2.339       .  S
Eu2320     O2322   2.354       .  S
C2323      C2476   1.499       .  S
C2324      C2381   1.466   1_655  S
C2325      C2367   1.496       .  S
C2326      C2451   1.476       .  S
C2327      C2353   1.492       .  S
C2329      C2504   1.492       .  S
C2335      C2336   1.398       .  A
C2335      C2340   1.405       .  A
C2335      H2342   1.084       .  S
C2336      C2337   1.417       .  A
C2337      C2338   1.402       .  A
C2337      N2344   1.439       .  S
C2338      C2339   1.399       .  A
C2338      H2343   1.084       .  S
C2339      C2340   1.419       .  A
C2340      N2341   1.445       .  S
N2341      O2345   1.263       .  A
N2341      O2346   1.261       .  A
N2344      O2347   1.262       .  A
N2344      O2348   1.263       .  A
C2349      C2350   1.395       .  A
C2349      C2354   1.390       .  A
C2349      H2356   1.085       .  S
C2350      C2351   1.417       .  A
C2351      C2352   1.414       .  A
C2351      N2358   1.443       .  S
C2352      C2353   1.409       .  A
C2352      H2357   1.083       .  S
C2353      C2354   1.422       .  A
C2354      N2355   1.435       .  S
N2355      O2360   1.263       .  A
N2358      O2361   1.262       .  A
N2358      O2362   1.263       .  A
C2363      C2364   1.403       .  A
C2363      C2368   1.408       .  A
C2363      H2370   1.084       .  S
C2365      C2366   1.399       .  A
C2365      N2372   1.441       .  S
C2366      C2367   1.409       .  A
C2366      H2371   1.083       .  S
C2368      N2369   1.434       .  S
N2369      O2373   1.262       .  A
N2369      O2374   1.263       .  A
N2372      O2375   1.262       .  A
N2372      O2376   1.263       .  A
C2377      C2378   1.401       .  A
C2377      C2382   1.405       .  A
C2377      H2384   1.084       .  S
C2379      C2380   1.399       .  A
C2379      N2386   1.436       .  S
C2380      C2381   1.398   1_655  A
C2380      H2385   1.085       .  S
C2382      N2383   1.446       .  S
N2383      O2387   1.263       .  A
N2383      O2388   1.260       .  A
N2386      O2389   1.263       .  A
N2386      O2390   1.262       .  A
C2391      H2398   1.084       .  S
C2392      C2393   1.419       .  A
C2393      C2394   1.404       .  A
C2393      N2400   1.438       .  S
C2394      C2395   1.403       .  A
C2394      H2399   1.084       .  S
C2395      C2396   1.420       .  A
C2396      N2397   1.439   1_655  S
N2397      O2402   1.263       .  A
N2400      O2403   1.263       .  A
N2400      O2404   1.263       .  A
C2405      C2406   1.409       .  A
C2406      C2407   1.410       .  A
C2407      C2408   1.396       .  A
C2407      N2414   1.438       .  S
C2408      C2409   1.401       .  A
C2408      H2413   1.079       .  S
C2410      N2411   1.446       .  S
N2411      O2415   1.263       .  A
N2411      O2416   1.262       .  A
N2414      O2417   1.263       .  A
N2414      O2418   1.263       .  A
C2419      C2420   1.409       .  A
C2419      C2424   1.407       .  A
C2419      H2426   1.083       .  S
C2420      C2421   1.416       .  A
C2421      C2422   1.400       .  A
C2422      C2423   1.402       .  A
C2423      C2424   1.416       .  A
N2425      O2429   1.263       .  A
N2425      O2430   1.262       .  A
N2428      O2432   1.262       .  A
C2433      C2434   1.405       .  A
C2433      C2438   1.394       .  A
C2433      H2440   1.083       .  S
C2434      C2435   1.418       .  A
C2435      C2436   1.413       .  A
C2435      N2442   1.435       .  S
C2436      C2437   1.406       .  A
C2436      H2441   1.084       .  S
C2437      C2438   1.413       .  A
C2438      N2439   1.441       .  S
N2439      O2443   1.262       .  A
N2439      O2444   1.263   1_565  A
N2442      O2445   1.262       .  A
N2442      O2446   1.263       .  A
C2447      C2448   1.413       .  A
C2447      C2452   1.408       .  A
C2447      H2454   1.082       .  S
C2448      C2449   1.413       .  A
C2449      C2450   1.398       .  A
C2449      N2456   1.439       .  S
C2450      C2451   1.404       .  A
C2450      H2455   1.080       .  S
C2451      C2452   1.412       .  A
C2452      N2453   1.440       .  S
N2453      O2457   1.263       .  A
N2453      O2458   1.262       .  A
N2456      O2459   1.262       .  A
N2456      O2460   1.263       .  A
C2461      C2466   1.412       .  A
C2461      H2468   1.083       .  S
C2462      C2463   1.418       .  A
C2463      C2464   1.405       .  A
C2463      N2470   1.445       .  S
C2464      H2469   1.084       .  S
C2465      C2466   1.420       .  A
C2466      N2467   1.448       .  S
N2467      O2471   1.263       .  A
N2467      O2472   1.262       .  A
N2470      O2473   1.261       .  A
N2470      O2474   1.263       .  A
C2475      C2476   1.410       .  A
C2475      C2480   1.418       .  A
C2475      H2482   1.082       .  S
C2476      C2477   1.422       .  A
C2477      C2478   1.389       .  A
C2477      N2484   1.431       .  S
C2478      C2479   1.393       .  A
C2478      H2483   1.086       .  S
C2479      C2480   1.420       .  A
C2480      N2481   1.447       .  S
N2481      O2485   1.263       .  A
N2481      O2486   1.262       .  A
N2484      O2487   1.262       .  A
N2484      O2488   1.261       .  A
C2489      C2490   1.404       .  A
C2489      C2494   1.409       .  A
C2489      H2496   1.084       .  S
C2490      C2491   1.408       .  A
C2491      C2492   1.402       .  A
C2491      N2498   1.441       .  S
C2492      C2493   1.403       .  A
C2492      H2497   1.076       .  S
C2493      C2494   1.420       .  A
C2494      N2495   1.447       .  S
N2495      O2499   1.263       .  A
N2495      O2500   1.262       .  A
N2498      O2501   1.263       .  A
N2498      O2502   1.263       .  A
C2503      C2504   1.406       .  A
C2503      C2508   1.387       .  A
C2503      H2510   1.085       .  S
C2504      C2505   1.425       .  A
C2506      H2511   1.083   1_554  S
C2507      C2508   1.406       .  A
C2508      N2509   1.428       .  S
N2509      O2513   1.261       .  A
N2509      O2514   1.262       .  A
N2512      O2516   1.263       .  A
C2517      C2518   1.407       .  A
C2517      C2522   1.407       .  A
C2517      H2524   1.083       .  S
C2518      C2519   1.420       .  A
C2519      C2520   1.397       .  A
C2519      N2526   1.437       .  S
C2520      C2521   1.400       .  A
C2521      C2522   1.416       .  A
C2522      N2523   1.438       .  S
N2523      O2527   1.263       .  A
N2523      O2528   1.261       .  A
N2526      O2529   1.262       .  A
C2531      C2532   1.401       .  A
C2531      C2536   1.404       .  A
C2531      H2538   1.084       .  S
C2532      C2533   1.419       .  A
C2533      C2534   1.408       .  A
C2533      N2540   1.440       .  S
C2534      C2535   1.402       .  A
C2535      C2536   1.414       .  A
C2536      N2537   1.438       .  S
N2537      O2541   1.263       .  A
N2537      O2542   1.262       .  A
N2540      O2543   1.263       .  A
N2540      O2544   1.263       .  A
