geometry optimzed in LAMMPS
_audit_creation_date              2020-12-01 
_audit_creation_method            'lammps2cif' 
_symmetry_space_group_name_H-M    'P1' 
_symmetry_Int_Tables_number       1 
_symmetry_cell_setting            triclinic 
loop_ 
_symmetry_equiv_pos_as_xyz 
  x,y,z 
_cell_length_a                    43.37693268 
_cell_length_b                    18.619839283710718 
_cell_length_c                    32.378911107647845 
_cell_angle_alpha                 89.9884636534201 
_cell_angle_beta                  89.81041281568886 
_cell_angle_gamma                 88.94819451743884 
loop_ 
_atom_site_label 
_atom_site_type_symbol 
_atom_site_fract_x 
_atom_site_fract_y 
_atom_site_fract_z 
_atom_site_charge 
O1          O  0.24841326  0.72365906  0.33674896    -0.69700
O2          O  0.24089382  0.83759268  0.23958143    -0.69900
O3          O  0.20149715  0.78093910  0.29334586    -0.69700
O4          O  0.28855821  0.78172326  0.28285832    -0.69700
O5          O  0.28752813  0.68189851  0.24827264    -0.69700
O6          O  0.19979502  0.68572081  0.25467140    -0.69700
O7          O  0.24170945  0.74030162  0.20255960    -0.69700
O8          O  0.24495851  0.62708846  0.29953701    -0.69800
V9          V  0.24497894  0.77903543  0.28747104     1.35200
V10         V  0.24365454  0.68569535  0.25189931     1.35200
C11         C  0.24630060  0.65600336  0.33469054     0.79600
C12         C  0.23955135  0.80799905  0.20449597     0.79600
C13         C  0.18578431  0.73380333  0.27548622     0.79500
C14         C  0.30297438  0.73182037  0.26416525     0.79500
O15         O  0.45112355  0.68696021  0.28179672    -0.69700
O16         O  0.03726553  0.69141417  0.29426077    -0.69900
O17         O  0.48901225  0.74760833  0.33685533    -0.69700
O18         O  0.00009198  0.63295123  0.23844687    -0.69700
O19         O  0.50009153  0.73427187  0.20290164    -0.69700
O20         O  0.98866458  0.84133924  0.30050016    -0.69700
O21         O  0.03813909  0.78959546  0.25818968    -0.69700
O22         O  0.45129921  0.78567447  0.24611448    -0.69800
V23         V  0.49451868  0.69348904  0.28734461     1.35200
V24         V  0.99450895  0.78428989  0.25236199     1.35200
C25         C  0.43630989  0.73528508  0.26242515     0.79600
C26         C  0.05262872  0.74088678  0.27788897     0.79600
C27         C  0.98591553  0.81102135  0.33518484     0.79500
C28         C  0.00225431  0.66370853  0.20372155     0.79500
O29         O  0.25641096  0.24428091  0.70501083    -0.69700
O30         O  0.25838267  0.12732914  0.80137688    -0.69900
O31         O  0.21353586  0.18542624  0.75416062    -0.69700
O32         O  0.30079749  0.18502990  0.75249479    -0.69700
O33         O  0.30045419  0.27876492  0.79249448    -0.69700
O34         O  0.21297368  0.28416832  0.78977157    -0.69700
O35         O  0.25572159  0.22343194  0.83924777    -0.69700
O36         O  0.25835366  0.33998987  0.74319307    -0.69800
V37         V  0.25717236  0.18747276  0.75389343     1.35200
V38         V  0.25677489  0.27973189  0.79046219     1.35200
C39         C  0.25812724  0.31195281  0.70768278     0.79600
C40         C  0.25775508  0.15570858  0.83685357     0.79600
C41         C  0.19829789  0.23476321  0.77216963     0.79500
C42         C  0.31547021  0.23104180  0.77277934     0.79500
O43         O  0.04986702  0.27918428  0.75571087    -0.69700
O44         O  0.46233858  0.27454522  0.75267690    -0.69900
O45         O  0.50112150  0.33636234  0.80427721    -0.69700
O46         O  0.50945024  0.22277641  0.70698164    -0.69700
O47         O  0.51040961  0.12557299  0.74400536    -0.69700
O48         O  0.50344701  0.23950196  0.84153636    -0.69700
O49         O  0.46348209  0.17801073  0.79036334    -0.68100
O50         O  0.05092128  0.18006740  0.79115925    -0.69800
V51         V  0.50575323  0.27778786  0.75639474     1.35200
V52         V  0.50707474  0.18444362  0.79206629     1.35200
C53         C  0.06525823  0.23049308  0.77396357     0.79600
C54         C  0.44805118  0.22569278  0.77132020     0.79600
C55         C  0.49968347  0.30704244  0.83945048     0.79500
C56         C  0.51082509  0.15482199  0.70874130     0.79500
O57         O  0.23899224  0.75559959  0.83443612    -0.69700
O58         O  0.23787836  0.64000736  0.73850986    -0.69900
O59         O  0.28241387  0.69199664  0.78681998    -0.69700
O60         O  0.19500300  0.70324532  0.78551812    -0.69700
O61         O  0.19697533  0.79549564  0.74439257    -0.69700
O62         O  0.28421299  0.79284360  0.75310352    -0.69700
O63         O  0.24326980  0.73507987  0.70043548    -0.69700
O64         O  0.23733475  0.85209948  0.79674708    -0.69800
V65         V  0.23871128  0.69967705  0.78567279     1.35200
V66         V  0.24053786  0.79204661  0.74928490     1.35200
C67         C  0.23710835  0.82330613  0.83211818     0.79600
C68         C  0.24005004  0.66772441  0.70309880     0.79600
C69         C  0.29814315  0.74130218  0.77084665     0.79500
C70         C  0.18123244  0.75037664  0.76401359     0.79500
O71         O  0.03309949  0.79429862  0.78392574    -0.69700
O72         O  0.44610759  0.78240769  0.79274024    -0.69900
O73         O  0.99371932  0.73092179  0.83589833    -0.69700
O74         O  0.98523526  0.84766821  0.73980858    -0.69700
O75         O  0.98475266  0.75111289  0.70232076    -0.69700
O76         O  0.49392942  0.63306965  0.79834144    -0.69700
O77         O  0.44649446  0.68794010  0.75360016    -0.69700
O78         O  0.03394885  0.70068672  0.74413375    -0.69800
V79         V  0.98961266  0.78754650  0.78718630     1.35200
V80         V  0.99053723  0.69530714  0.75064211     1.35200
C81         C  0.04848098  0.74918403  0.76275268     0.79600
C82         C  0.43129599  0.73463067  0.77396584     0.79600
C83         C  0.99742591  0.66348804  0.83294412     0.79500
C84         C  0.98293889  0.81885674  0.70460134     0.79500
N85         N  0.22886394  0.97221943  0.02019598    -0.01300
C86         C  0.21067877  0.96679249  0.98606928     0.01200
C87         C  0.18026310  0.95961791  0.99802927    -0.21600
C88         C  0.17998467  0.95398120  0.04029793    -0.21900
C89         C  0.21021102  0.95823452  0.05315367     0.01100
H90         H  0.16109600  0.94745861  0.97807357     0.14900
H91         H  0.16055131  0.93750410  0.05879586     0.15000
N92         N  0.26062740  0.99157025  0.02143178    -0.01300
C93         C  0.27814316  0.00069722  0.05586814     0.01200
C94         C  0.30886440  0.00485571  0.04479269    -0.21600
C95         C  0.31005614  0.00465811  0.00243952    -0.21900
C96         C  0.28005687  0.00046260  0.98863166     0.01100
H97         H  0.32776636  0.01847698  0.06485961     0.14900
H98         H  0.32997761  0.01841849  0.98408913     0.15000
N99         N  0.26637997  0.46914380  0.52091592    -0.01300
C100        C  0.28424996  0.45684831  0.55487857     0.01200
C101        C  0.31431167  0.44248849  0.54266646    -0.21600
C102        C  0.31446339  0.43970332  0.50030189    -0.21900
C103        C  0.28452073  0.45259729  0.48759911     0.01100
H104        H  0.33303339  0.42432980  0.56231249     0.14900
H105        H  0.33329639  0.41926709  0.48142271     0.15000
N106        N  0.23550865  0.49738030  0.52015643    -0.01300
C107        C  0.21787366  0.50984524  0.48606530     0.01200
C108        C  0.18752242  0.52154854  0.49763371    -0.21600
C109        C  0.18687347  0.52282273  0.53993978    -0.21900
C110        C  0.21685317  0.51186623  0.55319932     0.01100
H111        H  0.16883857  0.53920258  0.47778843     0.14900
H112        H  0.16756216  0.54164056  0.55851029     0.15000
N113        N  0.47855524  0.98014373  0.52004032    -0.01300
C114        C  0.95617731  0.97289764  0.55313029     0.01200
C115        C  0.92591312  0.97064859  0.54011966    -0.21600
C116        C  0.92643394  0.96700308  0.49773173    -0.21900
C117        C  0.95702225  0.96736301  0.48571036     0.01100
H118        H  0.90596004  0.95995700  0.55940399     0.14900
H119        H  0.90692922  0.95380918  0.47840885     0.15000
N120        N  0.51043601  0.99837141  0.52054635    -0.01300
C121        C  0.52896511  0.00840212  0.48694411     0.01200
C122        C  0.55942479  0.00872011  0.49922518    -0.21600
C123        C  0.55952934  0.00491330  0.54156240    -0.21900
C124        C  0.52913162  0.00264567  0.55433150     0.01100
H125        H  0.57913197  0.02171616  0.48012600     0.14900
H126        H  0.57931543  0.01489226  0.56096656     0.15000
N127        N  0.48129280  0.47850498  0.02101359    -0.01300
C128        C  0.46340929  0.47056078  0.05548081     0.01200
C129        C  0.43325574  0.45906153  0.04366660    -0.21600
C130        C  0.43314188  0.45293125  0.00134859    -0.21900
C131        C  0.46316483  0.46121342  0.98818584     0.01100
H132        H  0.41441498  0.44438450  0.06373307     0.14900
H133        H  0.41425549  0.43322733  0.98312673     0.15000
N134        N  0.51211244  0.50444551  0.01909165    -0.01300
C135        C  0.03148161  0.51648518  0.98331545     0.01200
C136        C  0.06146164  0.53023204  0.99478721    -0.21600
C137        C  0.06208142  0.53107539  0.03716145    -0.21900
C138        C  0.03249087  0.51779542  0.05067749     0.01100
H139        H  0.07965188  0.54928909  0.97488829     0.14900
H140        H  0.08081363  0.55086965  0.05569062     0.15000
O141        O  0.24897819  0.22193210  0.20396498    -0.69700
O142        O  0.25260969  0.33781114  0.30063143    -0.69900
O143        O  0.29395240  0.27536574  0.25116519    -0.69700
O144        O  0.20671924  0.28596585  0.25377350    -0.69700
O145        O  0.20572984  0.18735820  0.28934124    -0.69700
O146        O  0.29339711  0.18131012  0.29093902    -0.69700
O147        O  0.24950117  0.24179458  0.33838844    -0.69700
O148        O  0.25043569  0.12592374  0.24207618    -0.69800
V149        V  0.25039022  0.27829340  0.25299749     1.35200
V150        V  0.24961185  0.18591481  0.28943005     1.35200
C151        C  0.25054545  0.15409065  0.20659985     0.79600
C152        C  0.25251190  0.30908147  0.33603334     0.79600
C153        C  0.30850279  0.22811789  0.27162436     0.79500
C154        C  0.19120114  0.23858764  0.27194950     0.79500
O155        O  0.50223225  0.23653846  0.34009641    -0.69700
O156        O  0.49362569  0.35504656  0.24470793    -0.69900
O157        O  0.45468616  0.28867674  0.29546058    -0.69700
O158        O  0.04195711  0.30077906  0.28897422    -0.69700
O159        O  0.04405073  0.20182438  0.25338751    -0.69700
O160        O  0.45684636  0.19426077  0.25613489    -0.69700
O161        O  0.49687012  0.25987170  0.20605196    -0.69700
O162        O  0.50392609  0.14133672  0.30135719    -0.69800
V163        V  0.49823889  0.29391721  0.29165430     1.35200
V164        V  0.50027655  0.20240131  0.25445404     1.35200
C165        C  0.50458517  0.16884997  0.33702294     0.79600
C166        C  0.49336756  0.32734015  0.20905930     0.79600
C167        C  0.44091006  0.23940304  0.27648828     0.79500
C168        C  0.05787147  0.25187448  0.27146124     0.79500
C169        C  0.13959179  0.18344605  0.28489342     0.25700
C170        C  0.15695142  0.24319339  0.27284803    -0.22400
C171        C  0.14114153  0.30731915  0.26166739     0.20600
C172        C  0.10883571  0.31112373  0.26223958     0.25700
C173        C  0.09179648  0.25066446  0.27311080    -0.22300
C174        C  0.10739316  0.18710307  0.28467975     0.20600
F175        F  0.09132703  0.12856782  0.29645477    -0.12300
F176        F  0.15365425  0.12081343  0.29628693    -0.14700
F177        F  0.09420426  0.37307059  0.25083343    -0.14700
F178        F  0.15684653  0.36656449  0.25024076    -0.12300
C179        C  0.39230371  0.16935817  0.27162250     0.25700
C180        C  0.40699253  0.23552069  0.27716494    -0.22400
C181        C  0.38893209  0.29851876  0.28176859     0.20600
C182        C  0.35686694  0.29570233  0.27969882     0.25700
C183        C  0.34226618  0.22977832  0.27391763    -0.22300
C184        C  0.36012321  0.16646254  0.27048141     0.20600
F185        F  0.34645252  0.10223156  0.26468326    -0.12300
F186        F  0.40906124  0.10741714  0.26760775    -0.14700
F187        F  0.33999840  0.35744553  0.28395671    -0.14700
F188        F  0.40228320  0.36328259  0.28698701    -0.12300
C189        C  0.49734481  0.38823662  0.09797000     0.25700
C190        C  0.47430911  0.44243382  0.09620797    -0.22400
C191        C  0.45905697  0.46239982  0.13310644     0.20600
C192        C  0.46628793  0.42776888  0.17053305     0.25700
C193        C  0.48847894  0.37158610  0.17151567    -0.22300
C194        C  0.50432075  0.35346214  0.13506421     0.20600
F195        F  0.52651726  0.30109487  0.13522519    -0.12300
F196        F  0.51276213  0.36704312  0.06360234    -0.14700
F197        F  0.45025116  0.44606560  0.20516832    -0.14700
F198        F  0.43660857  0.51420230  0.13266755    -0.12300
C199        C  0.49938648  0.10379451  0.44760908     0.25700
C200        C  0.51960073  0.04373848  0.44746945    -0.22400
C201        C  0.02955578  0.01900948  0.40876192     0.20600
C202        C  0.02452088  0.05983687  0.37302372     0.25700
C203        C  0.50850338  0.12341711  0.37427828    -0.22300
C204        C  0.49401092  0.14326011  0.41151267     0.20600
F205        F  0.47462082  0.20129728  0.41304267    -0.12300
F206        F  0.48555954  0.12623483  0.48295783    -0.14700
F207        F  0.03853372  0.03888074  0.33734671    -0.14700
F208        F  0.04795186  0.95934638  0.40656130    -0.12300
C209        C  0.28672548  0.44276447  0.41032278     0.25700
C210        C  0.27367170  0.42144620  0.44809246    -0.22400
C211        C  0.25252051  0.36506679  0.44823065     0.20600
C212        C  0.24476734  0.33032361  0.41157016     0.25700
C213        C  0.25768091  0.35176213  0.37379853    -0.22300
C214        C  0.27833680  0.40924630  0.37337958     0.20600
F215        F  0.29174778  0.43038056  0.33755212    -0.12300
F216        F  0.30771272  0.49593296  0.40930786    -0.14700
F217        F  0.22496497  0.27472046  0.41314538    -0.14700
F218        F  0.24034459  0.34109377  0.48407269    -0.12300
C219        C  0.28107435  0.01177764  0.13289952     0.25700
C220        C  0.26733257  0.03312784  0.09546807    -0.22400
C221        C  0.24604692  0.09123185  0.09576972     0.20600
C222        C  0.23977547  0.12913198  0.13219079     0.25700
C223        C  0.25420892  0.10908811  0.16925055    -0.22300
C224        C  0.27428079  0.04878082  0.16954727     0.20600
F225        F  0.28882826  0.02828826  0.20481782    -0.12300
F226        F  0.30150484  0.95566581  0.13379397    -0.14700
F227        F  0.21976637  0.18603909  0.13111795    -0.14700
F228        F  0.23188335  0.11311653  0.06068450    -0.12300
C229        C  0.98631083  0.83295812  0.62823099     0.25700
C230        C  0.97778746  0.86204010  0.66671731    -0.22400
C231        C  0.46158228  0.92366464  0.66734702     0.20600
C232        C  0.45561970  0.96127865  0.63059372     0.25700
C233        C  0.96475254  0.93737521  0.59267862    -0.22300
C234        C  0.97968126  0.86987427  0.59187575     0.20600
F235        F  0.98652074  0.83730427  0.55567822    -0.12300
F236        F  0.00091200  0.76795906  0.62552903    -0.14700
F237        F  0.43707142  0.02077728  0.63158365    -0.14700
F238        F  0.44836695  0.94740323  0.70299599    -0.12300
C239        C  0.48731066  0.63683632  0.90824777     0.25700
C240        C  0.00341403  0.61920310  0.87001242    -0.22400
C241        C  0.02635530  0.56476902  0.86956759     0.20600
C242        C  0.03457841  0.52906015  0.90614821     0.25700
C243        C  0.01945715  0.54580214  0.94357044    -0.22300
C244        C  0.49484694  0.60035682  0.94464138     0.20600
F245        F  0.48071185  0.62130447  0.98002964    -0.12300
F246        F  0.46601989  0.69118643  0.90961845    -0.14700
F247        F  0.05771714  0.47896784  0.90523445    -0.14700
F248        F  0.04208252  0.54914638  0.83426812    -0.12300
C249        C  0.09988850  0.69816068  0.73995795     0.25700
C250        C  0.08262725  0.75203591  0.76083110    -0.22400
C251        C  0.09852139  0.80706950  0.78135370     0.20600
C252        C  0.13073621  0.80724353  0.78160123     0.25700
C253        C  0.14756964  0.75232734  0.76183283    -0.22300
C254        C  0.13209028  0.69817899  0.74080047     0.20600
F255        F  0.14824398  0.64536308  0.72094883    -0.12300
F256        F  0.08576677  0.64465881  0.71923354    -0.14700
F257        F  0.14554686  0.85977869  0.80229627    -0.14700
F258        F  0.08304003  0.86024890  0.80181756    -0.12300
C259        C  0.38062473  0.67658420  0.75859461     0.25700
C260        C  0.39705321  0.73480382  0.77485336    -0.22400
C261        C  0.38030249  0.79466451  0.79049355     0.20600
C262        C  0.34808233  0.79672484  0.78904915     0.25700
C263        C  0.33197342  0.73868305  0.77275989    -0.22300
C264        C  0.34837308  0.67837243  0.75795041     0.20600
F265        F  0.33312219  0.62214646  0.74152667    -0.12300
F266        F  0.39565525  0.61794259  0.74302913    -0.14700
F267        F  0.33254011  0.85503749  0.80419884    -0.14700
F268        F  0.39498637  0.85202861  0.80654351    -0.12300
C269        C  0.21505415  0.92923414  0.87097283     0.25700
C270        C  0.23361268  0.86638853  0.87014964    -0.22400
C271        C  0.24646159  0.84059569  0.90712702     0.20600
C272        C  0.24008644  0.87518292  0.94440533     0.25700
C273        C  0.22073259  0.93655671  0.94572723    -0.22300
C274        C  0.20830045  0.96342392  0.90861047     0.20600
F275        F  0.18938249  0.02231680  0.90896151    -0.12300
F276        F  0.20215639  0.95537729  0.83577240    -0.14700
F277        F  0.25220045  0.84690187  0.97933808    -0.14700
F278        F  0.26506229  0.78110548  0.90731661    -0.12300
C279        C  0.25346893  0.63852380  0.62972168     0.25700
C280        C  0.23714806  0.62260597  0.66593306    -0.22400
C281        C  0.21633224  0.56548087  0.66576534     0.20600
C282        C  0.21084523  0.52733792  0.62944521     0.25700
C283        C  0.22663439  0.54420474  0.59285529    -0.22300
C284        C  0.24842326  0.59940542  0.59360033     0.20600
F285        F  0.26399023  0.61784059  0.55906206    -0.12300
F286        F  0.27408067  0.69253624  0.62915751    -0.14700
F287        F  0.18941938  0.47507675  0.62966684    -0.14700
F288        F  0.19984350  0.54934131  0.70014210    -0.12300
C289        C  0.50300322  0.09944895  0.59655584     0.25700
C290        C  0.52045228  0.03508941  0.59494898    -0.22400
C291        C  0.03215270  0.99941622  0.62981422     0.20600
C292        C  0.02849842  0.03702508  0.66715639     0.25700
C293        C  0.51284545  0.11121705  0.67032328    -0.22300
C294        C  0.49936942  0.13716578  0.63366348     0.20600
F295        F  0.48277712  0.19972051  0.63358581    -0.12300
F296        F  0.49063149  0.12808599  0.56181980    -0.14700
F297        F  0.04130522  0.00939433  0.70204757    -0.14700
F298        F  0.04834798  0.93633045  0.62942725    -0.12300
C299        C  0.47215262  0.41035619  0.87475381     0.25700
C300        C  0.49219375  0.34993486  0.87698713    -0.22400
C301        C  0.00909949  0.32880661  0.91029880     0.20600
C302        C  0.00109357  0.36582449  0.94650431     0.25700
C303        C  0.47414617  0.42521777  0.94958349    -0.22300
C304        C  0.46262274  0.44644461  0.91081353     0.20600
F305        F  0.44230978  0.50253682  0.90787328    -0.12300
F306        F  0.46070044  0.43270503  0.83785774    -0.14700
F307        F  0.01387636  0.34397153  0.98254393    -0.14700
F308        F  0.02989403  0.27352051  0.91236984    -0.12300
C309        C  0.11639060  0.16774079  0.76888620     0.25700
C310        C  0.09918803  0.23167915  0.77439831    -0.22400
C311        C  0.11465201  0.29673982  0.77924396     0.20600
C312        C  0.14688697  0.29783968  0.77891952     0.25700
C313        C  0.16420234  0.23395283  0.77291905    -0.22300
C314        C  0.14857924  0.16887495  0.76782023     0.20600
F315        F  0.16441199  0.10596484  0.76236042    -0.12300
F316        F  0.10200352  0.10431493  0.76326689    -0.14700
F317        F  0.16108575  0.36166999  0.78370683    -0.14700
F318        F  0.09852883  0.35913958  0.78506010    -0.12300
C319        C  0.36562863  0.29360941  0.77240946     0.25700
C320        C  0.34932291  0.22923516  0.77318036    -0.22400
C321        C  0.36561506  0.16324638  0.77390233     0.20600
C322        C  0.39784229  0.16175300  0.77368985     0.25700
C323        C  0.41414591  0.22622230  0.77184842    -0.22300
C324        C  0.39776619  0.29213630  0.77137746     0.20600
F325        F  0.41288102  0.35537220  0.77085615    -0.12300
F326        F  0.35043401  0.35802047  0.77161737    -0.14700
F327        F  0.41305356  0.09736533  0.77448407    -0.14700
F328        F  0.35032992  0.10030395  0.77569891    -0.12300
C329        C  0.24579507  0.33751068  0.63379555     0.25700
C330        C  0.26111518  0.35656175  0.67016108    -0.22400
C331        C  0.28135381  0.41482521  0.66934680     0.20600
C332        C  0.28772984  0.44997264  0.63208789     0.25700
C333        C  0.27328799  0.42898860  0.59528804    -0.22300
C334        C  0.25165018  0.37360147  0.59683703     0.20600
F335        F  0.23717964  0.35168436  0.56224683    -0.12300
F336        F  0.22554545  0.28275310  0.63384460    -0.14700
F337        F  0.30872434  0.50317045  0.63163100    -0.14700
F338        F  0.29659028  0.43454255  0.70398917    -0.12300
C339        C  0.24932072  0.13840015  0.91257675     0.25700
C340        C  0.26067188  0.11168999  0.87476388    -0.22400
C341        C  0.27727358  0.04590517  0.87439058     0.20600
C342        C  0.28337188  0.00928532  0.91138222     0.25700
C343        C  0.27163305  0.03573241  0.94905197    -0.22300
C344        C  0.25469493  0.10077772  0.94920474     0.20600
F345        F  0.24481828  0.13041303  0.98512418    -0.12300
F346        F  0.23343101  0.20186693  0.91432326    -0.14700
F347        F  0.30081197  0.94801691  0.91050671    -0.14700
F348        F  0.28883306  0.01862083  0.83855142    -0.12300
C349        C  0.45714154  0.95938686  0.40877720     0.25700
C350        C  0.96695844  0.93192130  0.44638547    -0.22400
C351        C  0.98665147  0.87088848  0.44685956     0.20600
C352        C  0.99261454  0.83168202  0.41084417     0.25700
C353        C  0.97996621  0.85382831  0.37303395    -0.22300
C354        C  0.46339203  0.92136006  0.37221532     0.20600
F355        F  0.44978942  0.94348766  0.33659263    -0.12300
F356        F  0.43779946  0.01750709  0.40759308    -0.14700
F357        F  0.01105423  0.77207005  0.41297796    -0.14700
F358        F  0.99991031  0.84782720  0.48223709    -0.12300
C359        C  0.50092578  0.61084742  0.09212704     0.25700
C360        C  0.02184499  0.54932728  0.09058791    -0.22400
C361        C  0.03552028  0.52712330  0.12792648     0.20600
C362        C  0.02804609  0.56206656  0.16510669     0.25700
C363        C  0.00785523  0.62210299  0.16533095    -0.22300
C364        C  0.49441374  0.64713670  0.12896770     0.20600
F365        F  0.47471115  0.70465779  0.12822981    -0.12300
F366        F  0.48794570  0.63574748  0.05689030    -0.14700
F367        F  0.04187561  0.53966259  0.20050562    -0.14700
F368        F  0.05642680  0.47197992  0.12822515    -0.12300
C369        C  0.13541275  0.67241589  0.28425754     0.25700
C370        C  0.15186151  0.73585820  0.27844646    -0.22400
C371        C  0.13563287  0.80162369  0.27511982     0.20600
C372        C  0.10337398  0.80360653  0.27567741     0.25700
C373        C  0.08675009  0.73993106  0.28043542    -0.22300
C374        C  0.10316166  0.67444905  0.28574408     0.20600
F375        F  0.08804939  0.61185880  0.29103254    -0.12300
F376        F  0.15059704  0.60851233  0.28898723    -0.14700
F377        F  0.08843672  0.86792072  0.27162073    -0.14700
F378        F  0.15102371  0.86381033  0.26976535    -0.12300
C379        C  0.35430275  0.66746749  0.26221269     0.25700
C380        C  0.33704791  0.73214847  0.26136919    -0.22400
C381        C  0.35270047  0.79760396  0.25919790     0.20600
C382        C  0.38493894  0.79843536  0.25819865     0.25700
C383        C  0.40223761  0.73387040  0.26013567    -0.22300
C384        C  0.38658820  0.66833307  0.26202556     0.20600
F385        F  0.40253161  0.60494876  0.26370244    -0.12300
F386        F  0.33995100  0.60342823  0.26488425    -0.14700
F387        F  0.39921067  0.86272112  0.25700695    -0.14700
F388        F  0.33677377  0.86103562  0.25787653    -0.12300
C389        C  0.21453321  0.91128605  0.16708972     0.25700
C390        C  0.23436186  0.85061583  0.16662566    -0.22400
C391        C  0.24708936  0.82731346  0.12891765     0.20600
C392        C  0.24016407  0.86383346  0.09235472     0.25700
C393        C  0.22000768  0.92390405  0.09252688    -0.22300
C394        C  0.20695486  0.94672039  0.13022497     0.20600
F395        F  0.18682105  0.00337441  0.13125997    -0.12300
F396        F  0.20122306  0.93403294  0.20288772    -0.14700
F397        F  0.25231327  0.83836992  0.05663675    -0.14700
F398        F  0.26608548  0.76855490  0.12734708    -0.12300
C399        C  0.25734512  0.63159345  0.40919186     0.25700
C400        C  0.24289254  0.61216948  0.37227434    -0.22400
C401        C  0.22240579  0.55436974  0.37236837     0.20600
C402        C  0.21517580  0.51941073  0.40922827     0.25700
C403        C  0.22902005  0.53993193  0.44643729    -0.22300
C404        C  0.25063923  0.59548731  0.44588574     0.20600
F405        F  0.26434402  0.61726242  0.48105377    -0.12300
F406        F  0.27758016  0.68637200  0.40989851    -0.14700
F407        F  0.19417807  0.46623306  0.40877694    -0.14700
F408        F  0.20779480  0.53465963  0.33723728    -0.12300
O409        O  0.74880058  0.72213138  0.33890949    -0.69700
O410        O  0.74071389  0.83888851  0.24262048    -0.69900
O411        O  0.70163004  0.78096710  0.29644887    -0.69700
O412        O  0.78863157  0.78164130  0.28477798    -0.69700
O413        O  0.78717731  0.68056748  0.25136656    -0.69700
O414        O  0.69965863  0.68924533  0.25512401    -0.69700
O415        O  0.74283412  0.74251942  0.20487027    -0.69700
O416        O  0.74330263  0.62696914  0.30103016    -0.69800
V417        V  0.74507605  0.77904791  0.29007999     1.35200
V418        V  0.74340484  0.68670155  0.25377795     1.35200
C419        C  0.74557483  0.65474849  0.33639628     0.79600
C420        C  0.74020559  0.81011405  0.20722953     0.79600
C421        C  0.68577893  0.73601359  0.27698679     0.79500
C422        C  0.80276685  0.73083081  0.26652382     0.79500
O423        O  0.95068034  0.68360145  0.28097161    -0.69700
O424        O  0.53774665  0.69535958  0.29417902    -0.69900
O425        O  0.98808678  0.74310967  0.33662885    -0.69700
O426        O  0.50046615  0.63608208  0.23914326    -0.69700
O427        O  0.99997937  0.73149554  0.20256682    -0.69700
O428        O  0.48945345  0.84536485  0.30025895    -0.69700
O429        O  0.53848042  0.79324586  0.25770591    -0.69700
O430        O  0.95097973  0.78245470  0.24552931    -0.69800
V431        V  0.99399712  0.68974470  0.28690402     1.35200
V432        V  0.49485688  0.78768254  0.25240746     1.35200
C433        C  0.93589457  0.73209814  0.26170523     0.79600
C434        C  0.55296804  0.74463077  0.27741186     0.79600
C435        C  0.48718717  0.81554529  0.33512241     0.79500
C436        C  0.50256586  0.66655585  0.20434452     0.79500
O437        O  0.75570840  0.23929866  0.70422265    -0.69700
O438        O  0.75725072  0.12250137  0.80025886    -0.69900
O439        O  0.71253690  0.18447614  0.75445519    -0.69700
O440        O  0.79988939  0.17697754  0.75024766    -0.69700
O441        O  0.80144426  0.27170390  0.78942521    -0.69700
O442        O  0.71389010  0.28248097  0.79062174    -0.69700
O443        O  0.75700646  0.21853695  0.83836166    -0.69700
O444        O  0.75896436  0.33508044  0.74211995    -0.69800
V445        V  0.75624950  0.18278594  0.75298344     1.35200
V446        V  0.75770104  0.27503740  0.78949516     1.35200
C447        C  0.75834181  0.30672008  0.70670106     0.79600
C448        C  0.75765872  0.15070531  0.83571645     0.79600
C449        C  0.69824044  0.23461630  0.77314885     0.79500
C450        C  0.81546981  0.22318959  0.76908417     0.79500
O451        O  0.54937375  0.28539551  0.75898927    -0.69700
O452        O  0.96293361  0.26865804  0.74760367    -0.69900
O453        O  0.00158986  0.33177267  0.79960615    -0.69700
O454        O  0.01053855  0.21583550  0.70369854    -0.69700
O455        O  0.00974588  0.11937754  0.74135543    -0.69700
O456        O  0.00470923  0.23605823  0.83780553    -0.69700
O457        O  0.96350661  0.17511672  0.78755687    -0.68100
O458        O  0.55070964  0.18693527  0.79499850    -0.69800
V459        V  0.00635868  0.27194312  0.75236845     1.35200
V460        V  0.00722619  0.17955996  0.78883619     1.35200
C461        C  0.56493604  0.23714038  0.77739484     0.79600
C462        C  0.94827648  0.22092944  0.76673102     0.79600
C463        C  0.00124558  0.30357760  0.83511117     0.79500
C464        C  0.01104921  0.14797515  0.70599438     0.79500
O465        O  0.73966407  0.74948772  0.83517568    -0.69700
O466        O  0.73915990  0.63427892  0.73893904    -0.69900
O467        O  0.78331419  0.68853297  0.78706261    -0.69700
O468        O  0.69591769  0.69559609  0.78678639    -0.69700
O469        O  0.69662264  0.78724891  0.74553604    -0.69700
O470        O  0.78397801  0.78912479  0.75316219    -0.69700
O471        O  0.74322890  0.72966629  0.70092968    -0.69700
O472        O  0.73682746  0.84602127  0.79766640    -0.69800
V473        V  0.73960750  0.69388873  0.78627332     1.35200
V474        V  0.74027590  0.78625582  0.74995678     1.35200
C475        C  0.73709971  0.81709615  0.83304520     0.79600
C476        C  0.74090642  0.66204420  0.70345896     0.79600
C477        C  0.79857619  0.73843602  0.77086033     0.79500
C478        C  0.68125490  0.74184156  0.76559898     0.79500
O479        O  0.53311960  0.79267067  0.78295107    -0.69700
O480        O  0.94616096  0.78506372  0.79169121    -0.69900
O481        O  0.49429218  0.72957753  0.83603653    -0.69700
O482        O  0.48464694  0.84501372  0.73992092    -0.69700
O483        O  0.48688282  0.74875688  0.70210466    -0.69700
O484        O  0.99667842  0.63538526  0.79748156    -0.69700
O485        O  0.94704780  0.68662869  0.75571650    -0.69700
O486        O  0.53380548  0.69389281  0.74708322    -0.69800
V487        V  0.48958431  0.78548073  0.78724499     1.35200
V488        V  0.49019585  0.69283638  0.75096454     1.35200
C489        C  0.54824498  0.74407189  0.76413908     0.79600
C490        C  0.93170121  0.73507776  0.77449002     0.79600
C491        C  0.49609450  0.66178938  0.83353559     0.79500
C492        C  0.48407899  0.81638831  0.70455361     0.79500
N493        N  0.72791021  0.96790016  0.02109888    -0.01300
C494        C  0.70943339  0.95889200  0.98752331     0.01200
C495        C  0.67924117  0.95108316  0.00025010    -0.21600
C496        C  0.67942545  0.94913197  0.04265035    -0.21900
C497        C  0.70972476  0.95586695  0.05482116     0.01100
H498        H  0.65997667  0.93671417  0.98098063     0.14900
H499        H  0.66033086  0.93324993  0.06195368     0.15000
N500        N  0.75951202  0.98865709  0.02116201    -0.01300
C501        C  0.77748456  0.99938781  0.05499276     0.01200
C502        C  0.80802396  0.00350585  0.04318510    -0.21600
C503        C  0.80863356  0.00170193  0.00084012    -0.21900
C504        C  0.77844051  0.99668621  0.98777692     0.01100
H505        H  0.82713801  0.01811909  0.06264363     0.14900
H506        H  0.82831008  0.01492775  0.98188410     0.15000
N507        N  0.76905201  0.46200569  0.52049142    -0.01300
C508        C  0.78727877  0.44867930  0.55396654     0.01200
C509        C  0.81699823  0.43227387  0.54108665    -0.21600
C510        C  0.81653423  0.42938294  0.49873705    -0.21900
C511        C  0.78657252  0.44434623  0.48676809     0.01100
H512        H  0.83571200  0.41271026  0.56031108     0.14900
H513        H  0.83489251  0.40792758  0.47938747     0.15000
N514        N  0.73808571  0.48973003  0.52074320    -0.01300
C515        C  0.71986804  0.50244478  0.48723679     0.01200
C516        C  0.68950190  0.51047972  0.49971638    -0.21600
C517        C  0.68937734  0.50913427  0.54205135    -0.21900
C518        C  0.71965951  0.50063369  0.55445510     0.01100
H519        H  0.67022725  0.52730785  0.48066492     0.14900
H520        H  0.67005736  0.52528935  0.56139090     0.15000
N521        N  0.97515338  0.97739995  0.51950288    -0.01300
C522        C  0.45959438  0.97227118  0.55338702     0.01200
C523        C  0.42937183  0.96924244  0.54028999    -0.21600
C524        C  0.42993606  0.96864753  0.49791624    -0.21900
C525        C  0.46050599  0.97132493  0.48599940     0.01100
H526        H  0.40949159  0.95645228  0.55926912     0.14900
H527        H  0.41057594  0.95559365  0.47829333     0.15000
N528        N  0.00736821  0.99229350  0.51934388    -0.01300
C529        C  0.02548371  0.00236584  0.48539444     0.01200
C530        C  0.05615343  0.99893268  0.49667556    -0.21600
C531        C  0.05690902  0.99270439  0.53888538    -0.21900
C532        C  0.02668877  0.99298540  0.55254793     0.01100
H533        H  0.07575984  0.01101143  0.47720275     0.14900
H534        H  0.07719119  0.00011330  0.55778655     0.15000
N535        N  0.98417132  0.47227846  0.01844049    -0.01300
C536        C  0.96604298  0.46105578  0.05230973     0.01200
C537        C  0.93649594  0.44510570  0.03975772    -0.21600
C538        C  0.93706147  0.44022750  0.99745274    -0.21900
C539        C  0.96689778  0.45355958  0.98506027     0.01100
H540        H  0.91789278  0.42717937  0.05929917     0.14900
H541        H  0.91896948  0.41844399  0.97859520     0.15000
N542        N  0.01422624  0.50261166  0.01762815    -0.01300
C543        C  0.52922019  0.51465176  0.98421122     0.01200
C544        C  0.55968203  0.52475222  0.99478118    -0.21600
C545        C  0.56089177  0.52745309  0.03711167    -0.21900
C546        C  0.53116605  0.51876916  0.05144383     0.01100
H547        H  0.57805105  0.54048858  0.97418326     0.14900
H548        H  0.58035761  0.54532908  0.05492074     0.15000
O549        O  0.74813165  0.22354574  0.20189632    -0.69700
O550        O  0.75216011  0.33947068  0.29852541    -0.69900
O551        O  0.79330674  0.27764874  0.24838752    -0.69700
O552        O  0.70614365  0.28733830  0.25222831    -0.69700
O553        O  0.70548097  0.18867544  0.28783041    -0.69700
O554        O  0.79323704  0.18348862  0.28807240    -0.69700
O555        O  0.74947967  0.24316187  0.33615902    -0.69700
O556        O  0.74988869  0.12763254  0.24007129    -0.69800
V557        V  0.74976064  0.28002836  0.25086855     1.35200
V558        V  0.74937993  0.18757245  0.28728099     1.35200
C559        C  0.74982221  0.15570364  0.20460826     0.79600
C560        C  0.75223529  0.31045013  0.33385204     0.79600
C561        C  0.80813422  0.23041956  0.26849070     0.79500
C562        C  0.69082634  0.23996229  0.27067237     0.79500
O563        O  0.00130406  0.23687944  0.33973154    -0.69700
O564        O  0.99448535  0.35207425  0.24262183    -0.69900
O565        O  0.95451230  0.28856042  0.29312900    -0.69700
O566        O  0.54195072  0.30253007  0.28924940    -0.69700
O567        O  0.54372670  0.20581516  0.25166660    -0.69700
O568        O  0.95689194  0.19373367  0.25413369    -0.69700
O569        O  0.99870511  0.25563575  0.20514458    -0.69700
O570        O  0.00245397  0.14067674  0.30181318    -0.69800
V571        V  0.99817882  0.29278154  0.29044943     1.35200
V572        V  0.00045999  0.20005153  0.25428851     1.35200
C573        C  0.00307402  0.16900412  0.33723191     0.79600
C574        C  0.99510565  0.32310882  0.20727924     0.79600
C575        C  0.94080701  0.23963919  0.27374856     0.79500
C576        C  0.55769534  0.25472524  0.27051542     0.79500
C577        C  0.63922732  0.18360116  0.28081612     0.25700
C578        C  0.65666155  0.24478077  0.27200415    -0.22400
C579        C  0.64103774  0.31061162  0.26416905     0.20600
C580        C  0.60875624  0.31467947  0.26458212     0.25700
C581        C  0.59159840  0.25288847  0.27197582    -0.22300
C582        C  0.60705067  0.18759193  0.28043882     0.20600
F583        F  0.59087113  0.12760746  0.28905228    -0.12300
F584        F  0.65321314  0.11935226  0.28899536    -0.14700
F585        F  0.59428411  0.37839200  0.25646720    -0.14700
F586        F  0.65693694  0.37129994  0.25636785    -0.12300
C587        C  0.89189919  0.17065785  0.26911885     0.25700
C588        C  0.90682659  0.23678690  0.27331961    -0.22400
C589        C  0.88897925  0.30047178  0.27587197     0.20600
C590        C  0.85686909  0.29813249  0.27373206     0.25700
C591        C  0.84199610  0.23202623  0.26995365    -0.22300
C592        C  0.85969963  0.16827429  0.26790708     0.20600
F593        F  0.84585043  0.10391186  0.26357062    -0.12300
F594        F  0.90845109  0.10818455  0.26673860    -0.14700
F595        F  0.84024512  0.36053463  0.27614175    -0.14700
F596        F  0.90260262  0.36528547  0.27931041    -0.12300
C597        C  0.99993994  0.38018091  0.09546690     0.25700
C598        C  0.97695335  0.43437581  0.09316332    -0.22400
C599        C  0.96144954  0.45526002  0.12962713     0.20600
C600        C  0.96851901  0.42193988  0.16740037     0.25700
C601        C  0.99070165  0.36587736  0.16914561    -0.22300
C602        C  0.00665514  0.34626169  0.13295793     0.20600
F603        F  0.02855610  0.29322510  0.13375447    -0.12300
F604        F  0.01523573  0.35782878  0.06118777    -0.14700
F605        F  0.95223868  0.44119764  0.20165918    -0.14700
F606        F  0.93885931  0.50665663  0.12837893    -0.12300
C607        C  0.99703686  0.10192935  0.44757231     0.25700
C608        C  0.01609016  0.03979593  0.44658019    -0.22400
C609        C  0.53363745  0.02297609  0.40994194     0.20600
C610        C  0.52782845  0.06183463  0.37357864     0.25700
C611        C  0.00655260  0.12353221  0.37452841    -0.22300
C612        C  0.99264896  0.14381140  0.41208375     0.20600
F613        F  0.97480115  0.20436534  0.41452562    -0.12300
F614        F  0.98340643  0.12396911  0.48308843    -0.14700
F615        F  0.54234866  0.04133778  0.33817090    -0.14700
F616        F  0.55330825  0.96544743  0.40864868    -0.12300
C617        C  0.78858874  0.43762928  0.40948255     0.25700
C618        C  0.77495467  0.41638293  0.44690165    -0.22400
C619        C  0.75223130  0.36340515  0.44615159     0.20600
C620        C  0.74365237  0.33166962  0.40897276     0.25700
C621        C  0.75746945  0.35242999  0.37168768    -0.22300
C622        C  0.77951345  0.40689710  0.37207625     0.20600
F623        F  0.79372790  0.42706990  0.33662034    -0.12300
F624        F  0.81097832  0.48761734  0.40929913    -0.14700
F625        F  0.72221246  0.27940669  0.40952004    -0.14700
F626        F  0.73905446  0.34011212  0.48150220    -0.12300
C627        C  0.78019094  0.01186292  0.13192173     0.25700
C628        C  0.76707570  0.03357884  0.09419699    -0.22400
C629        C  0.74651692  0.09299418  0.09379497     0.20600
C630        C  0.74003260  0.13133786  0.12995125     0.25700
C631        C  0.75359338  0.11048265  0.16742915    -0.22300
C632        C  0.77306577  0.04910230  0.16835588     0.20600
F633        F  0.78658109  0.02740529  0.20412403    -0.12300
F634        F  0.80010563  0.95480423  0.13337276    -0.14700
F635        F  0.72068838  0.18942194  0.12820414    -0.14700
F636        F  0.73349956  0.11603547  0.05820969    -0.12300
C637        C  0.49265050  0.83657904  0.62932037     0.25700
C638        C  0.47978942  0.86022002  0.66685254    -0.22400
C639        C  0.96261472  0.92968317  0.66789135     0.20600
C640        C  0.95560653  0.96637913  0.63103989     0.25700
C641        C  0.46848185  0.93732372  0.59299787    -0.22300
C642        C  0.48707747  0.87462481  0.59294144     0.20600
F643        F  0.49914375  0.84823461  0.55745741    -0.12300
F644        F  0.51066262  0.77618911  0.62770417    -0.14700
F645        F  0.94005731  0.03024247  0.63275865    -0.14700
F646        F  0.95365487  0.95914028  0.70445437    -0.12300
C647        C  0.98763135  0.63424040  0.90695512     0.25700
C648        C  0.50163301  0.61784995  0.87083628    -0.22400
C649        C  0.52295563  0.55997874  0.87015296     0.20600
C650        C  0.53115267  0.52463605  0.90685865     0.25700
C651        C  0.51734691  0.54481547  0.94462081    -0.22300
C652        C  0.99539935  0.59768525  0.94326870     0.20600
F653        F  0.97994580  0.61509796  0.97832752    -0.12300
F654        F  0.96472732  0.68491927  0.90795221    -0.14700
F655        F  0.55280408  0.47108340  0.90564860    -0.14700
F656        F  0.53706351  0.54009236  0.83435286    -0.12300
C657        C  0.59814357  0.79857538  0.74384531     0.25700
C658        C  0.58202336  0.74387300  0.76369354    -0.22400
C659        C  0.59832335  0.68867782  0.78390667     0.20600
C660        C  0.63048526  0.68814498  0.78464780     0.25700
C661        C  0.64704173  0.74262318  0.76456494    -0.22300
C662        C  0.63043156  0.79777710  0.74391599     0.20600
F663        F  0.64528318  0.85122148  0.72396012    -0.12300
F664        F  0.58259190  0.85202589  0.72381276    -0.14700
F665        F  0.64527126  0.63415700  0.80520804    -0.14700
F666        F  0.58298731  0.63609733  0.80394663    -0.12300
C667        C  0.88146342  0.67071292  0.77365971     0.25700
C668        C  0.89766545  0.73532562  0.77503072    -0.22400
C669        C  0.88103846  0.80099560  0.77543745     0.20600
C670        C  0.84884456  0.80202280  0.77388767     0.25700
C671        C  0.83261121  0.73739826  0.77258313    -0.22300
C672        C  0.84921131  0.67171474  0.77289385     0.20600
F673        F  0.83424972  0.60836076  0.77135276    -0.12300
F674        F  0.89682053  0.60650882  0.77352331    -0.14700
F675        F  0.83355922  0.86634081  0.77430372    -0.14700
F676        F  0.89596487  0.86448933  0.77604254    -0.12300
C677        C  0.71432140  0.92195302  0.87227455     0.25700
C678        C  0.73327237  0.85973564  0.87131919    -0.22400
C679        C  0.74598071  0.83380226  0.90841957     0.20600
C680        C  0.73918633  0.86778647  0.94581999     0.25700
C681        C  0.71946069  0.92848722  0.94716251    -0.22300
C682        C  0.70700021  0.95518622  0.91002397     0.20600
F683        F  0.68756697  0.01316944  0.91044028    -0.12300
F684        F  0.70152751  0.94829082  0.83705589    -0.14700
F685        F  0.75101412  0.83925786  0.98090523    -0.14700
F686        F  0.76468008  0.77448561  0.90864722    -0.12300
C687        C  0.75115438  0.63898776  0.62817973     0.25700
C688        C  0.73875235  0.61650652  0.66608158    -0.22400
C689        C  0.72224057  0.55200281  0.66744215     0.20600
C690        C  0.71702764  0.51288260  0.63133049     0.25700
C691        C  0.72933415  0.53549149  0.59343501    -0.22300
C692        C  0.74668457  0.59859071  0.59234327     0.20600
F693        F  0.75750502  0.62423271  0.55611578    -0.12300
F694        F  0.76700321  0.70104812  0.62551273    -0.14700
F695        F  0.69928676  0.45365309  0.63315137    -0.14700
F696        F  0.70949941  0.52885882  0.70329859    -0.12300
C697        C  0.00300157  0.09281600  0.59443558     0.25700
C698        C  0.01939151  0.02702312  0.59302917    -0.22400
C699        C  0.53327511  0.00796063  0.63182691     0.20600
C700        C  0.52902366  0.04490470  0.66930281     0.25700
C701        C  0.01289510  0.10404068  0.66795965    -0.22300
C702        C  0.99979302  0.13077556  0.63133523     0.20600
F703        F  0.98377249  0.19413728  0.63113386    -0.12300
F704        F  0.99093384  0.12223586  0.55979157    -0.14700
F705        F  0.54203856  0.01754225  0.70412599    -0.14700
F706        F  0.55034868  0.94611833  0.63136630    -0.12300
C707        C  0.97417920  0.40578865  0.87136885     0.25700
C708        C  0.99546542  0.34779533  0.87245901    -0.22400
C709        C  0.50280620  0.32740124  0.91592308     0.20600
C710        C  0.49403978  0.36482667  0.95166888     0.25700
C711        C  0.97889139  0.42188545  0.94582628    -0.22300
C712        C  0.96544445  0.44130373  0.90785904     0.20600
F713        F  0.94352641  0.49420938  0.90625458    -0.12300
F714        F  0.96043797  0.42539121  0.83536875    -0.14700
F715        F  0.50376665  0.33933819  0.98858122    -0.14700
F716        F  0.52149809  0.26846079  0.91954184    -0.12300
C717        C  0.61557500  0.17262197  0.77226902     0.25700
C718        C  0.59895609  0.23753287  0.77714652    -0.22400
C719        C  0.61510679  0.30199943  0.78078312     0.20600
C720        C  0.64743766  0.30130535  0.78010685     0.25700
C721        C  0.66409209  0.23623096  0.77476752    -0.22300
C722        C  0.64774889  0.17197718  0.77079345     0.20600
F723        F  0.66289438  0.10802189  0.76603182    -0.12300
F724        F  0.60059485  0.10973404  0.76761280    -0.14700
F725        F  0.66236896  0.36443230  0.78379947    -0.14700
F726        F  0.59960694  0.36546813  0.78570032    -0.12300
C727        C  0.86582835  0.15869613  0.77768289     0.25700
C728        C  0.84923348  0.22125740  0.76697386    -0.22400
C729        C  0.86507572  0.28244090  0.75436559     0.20600
C730        C  0.89725499  0.28171403  0.75317448     0.25700
C731        C  0.91417619  0.21993234  0.76541447    -0.22300
C732        C  0.89807511  0.15814871  0.77734624     0.20600
F733        F  0.91345279  0.09710467  0.78861097    -0.12300
F734        F  0.85078487  0.09886589  0.78974264    -0.14700
F735        F  0.91174353  0.34218002  0.74091704    -0.14700
F736        F  0.84930453  0.34265942  0.74256080    -0.12300
C737        C  0.74872345  0.32818740  0.63186809     0.25700
C738        C  0.76225735  0.35014339  0.66896309    -0.22400
C739        C  0.78219568  0.40904409  0.66856512     0.20600
C740        C  0.78958812  0.44289555  0.63125010     0.25700
C741        C  0.77639616  0.41998033  0.59404002    -0.22300
C742        C  0.75570918  0.36269126  0.59486227     0.20600
F743        F  0.74324759  0.33760018  0.55958440    -0.12300
F744        F  0.72905513  0.27227829  0.63128094    -0.14700
F745        F  0.81011444  0.49706465  0.63123413    -0.14700
F746        F  0.79600998  0.43101100  0.70381938    -0.12300
C747        C  0.74501576  0.12812700  0.90968821     0.25700
C748        C  0.75988997  0.10591753  0.87322503    -0.22400
C749        C  0.77867820  0.04349330  0.87378633     0.20600
C750        C  0.78385487  0.00642627  0.91084573     0.25700
C751        C  0.76949958  0.02963915  0.94764530    -0.22300
C752        C  0.74961799  0.09021150  0.94641138     0.20600
F753        F  0.73535712  0.11462357  0.98095408    -0.12300
F754        F  0.72614315  0.18714087  0.90987682    -0.14700
F755        F  0.80327177  0.94840095  0.91099858    -0.14700
F756        F  0.79342273  0.02069441  0.83899929    -0.12300
C757        C  0.95419616  0.95407131  0.40845801     0.25700
C758        C  0.47049409  0.93726668  0.44636425    -0.22400
C759        C  0.49038115  0.87662441  0.44632772     0.20600
C760        C  0.49592045  0.83758014  0.41016381     0.25700
C761        C  0.48227387  0.85903175  0.37285635    -0.22300
C762        C  0.96108846  0.91620935  0.37199233     0.20600
F763        F  0.94820270  0.93875828  0.33598869    -0.12300
F764        F  0.93507584  0.01254181  0.40676511    -0.14700
F765        F  0.51476519  0.77858970  0.41167780    -0.14700
F766        F  0.50388523  0.85327933  0.48147701    -0.12300
C767        C  0.00121665  0.60851261  0.09108072     0.25700
C768        C  0.52166858  0.55191819  0.09139435    -0.22400
C769        C  0.53598529  0.53045790  0.12845754     0.20600
C770        C  0.52884705  0.56567400  0.16566466     0.25700
C771        C  0.50820455  0.62487464  0.16611126    -0.22300
C772        C  0.99451239  0.64486983  0.12793706     0.20600
F773        F  0.97516821  0.70302968  0.12694827    -0.12300
F774        F  0.98880020  0.63391380  0.05556101    -0.14700
F775        F  0.54333295  0.54431690  0.20080665    -0.14700
F776        F  0.55704042  0.47560194  0.12849068    -0.12300
C777        C  0.63521194  0.67459875  0.27825159     0.25700
C778        C  0.65187220  0.73850573  0.27930575    -0.22400
C779        C  0.63583031  0.80477896  0.28152346     0.20600
C780        C  0.60357040  0.80711474  0.28112726     0.25700
C781        C  0.58691879  0.74314985  0.27955430    -0.22300
C782        C  0.60303360  0.67684252  0.27878626     0.20600
F783        F  0.58763872  0.61405796  0.27702067    -0.12300
F784        F  0.65009857  0.60980927  0.27706194    -0.14700
F785        F  0.58863190  0.87178990  0.28263086    -0.14700
F786        F  0.65137346  0.86739755  0.28261621    -0.12300
C787        C  0.85374480  0.66669883  0.26956948     0.25700
C788        C  0.83666333  0.73040636  0.26307324    -0.22400
C789        C  0.85223736  0.79401258  0.25391389     0.20600
C790        C  0.88447058  0.79414501  0.25180422     0.25700
C791        C  0.90175435  0.73078879  0.25965328    -0.22300
C792        C  0.88596409  0.66689641  0.26816558     0.20600
F793        F  0.90166184  0.60444514  0.27548515    -0.12300
F794        F  0.83926511  0.60474568  0.27902937    -0.14700
F795        F  0.89868790  0.85689057  0.24342625    -0.14700
F796        F  0.83619126  0.85603807  0.24665891    -0.12300
C797        C  0.71531116  0.91353920  0.16944555     0.25700
C798        C  0.73531066  0.85312545  0.16935015    -0.22400
C799        C  0.74816628  0.82955574  0.13174817     0.20600
C800        C  0.74080257  0.86467017  0.09487947     0.25700
C801        C  0.72018214  0.92386583  0.09459800    -0.22300
C802        C  0.70738018  0.94776102  0.13227076     0.20600
F803        F  0.68712021  0.00418682  0.13297569    -0.12300
F804        F  0.70215227  0.93711484  0.20517287    -0.14700
F805        F  0.75304129  0.83874537  0.05929293    -0.14700
F806        F  0.76766117  0.77166117  0.13056104    -0.12300
C807        C  0.75866355  0.62516852  0.40983013     0.25700
C808        C  0.74230074  0.60987747  0.37370075    -0.22400
C809        C  0.72079149  0.55415291  0.37418791     0.20600
C810        C  0.71447098  0.51737179  0.41079052     0.25700
C811        C  0.73007753  0.53417448  0.44741763    -0.22300
C812        C  0.75288106  0.58716085  0.44622342     0.20600
F813        F  0.76914235  0.60379197  0.48037457    -0.12300
F814        F  0.78013218  0.67731854  0.41000014    -0.14700
F815        F  0.69270949  0.46586140  0.41063383    -0.14700
F816        F  0.70445091  0.53814820  0.33980027    -0.12300
loop_ 
_geom_bond_atom_site_label_1 
_geom_bond_atom_site_label_2 
_geom_bond_distance 
_geom_bond_site_symmetry_2 
_ccdc_geom_bond_type 
O1            V9   1.904       .  S
O1           C11   1.267       .  A
O2            V9   1.902       .  S
O2           C12   1.265       .  A
O3            V9   1.895       .  S
O3           C13   1.263       .  A
O4            V9   1.897       .  S
O4           C14   1.264       .  A
O5           V10   1.906       .  S
O5           C14   1.266       .  A
O6           V10   1.904       .  S
O6           C13   1.266       .  A
O7           V10   1.895       .  S
O7           C12   1.264       .  A
O8           V10   1.890       .  S
O8           C11   1.261       .  A
V9           V10   2.087       .  T
C11         C400   1.474       .  S
C12         C390   1.476       .  S
C13         C370   1.474       .  S
C14         C380   1.481       .  S
O15          V23   1.898       .  S
O15          C25   1.264       .  A
O16         V431   1.894   1_455  S
O16          C26   1.262       .  A
O17          V23   1.906       .  S
O17         C435   1.267       .  A
O18         V431   1.907   1_455  S
O18          C28   1.266       .  A
O19         V432   1.897       .  S
O19         C436   1.264       .  A
O20          V24   1.900       .  S
O20          C27   1.263       .  A
O21          V24   1.907   1_455  S
O21          C26   1.267       .  A
O22         V432   1.902       .  S
O22          C25   1.266       .  A
V23         O424   1.890       .  S
V23         O426   1.906       .  S
V23         V432   2.087       .  T
V24         O427   1.900       .  S
V24         O430   1.903       .  S
V24         V431   2.086       .  T
C25         C383   1.481       .  S
C26         C373   1.482       .  S
C27         O425   1.267       .  A
C27         C353   1.481       .  S
C28         O427   1.265   1_455  A
C28         C363   1.482       .  S
O29          V37   1.904       .  S
O29          C39   1.267       .  A
O30          V37   1.902       .  S
O30          C40   1.265       .  A
O31          V37   1.894       .  S
O31          C41   1.263       .  A
O32          V37   1.892       .  S
O32          C42   1.262       .  A
O33          V38   1.896       .  S
O33          C42   1.264       .  A
O34          V38   1.900       .  S
O34          C41   1.265       .  A
O35          V38   1.897       .  S
O35          C40   1.265       .  A
O36          V38   1.899       .  S
O36          C39   1.263       .  A
V37          V38   2.086       .  T
C39         C330   1.478       .  S
C40         C340   1.480       .  S
C41         C313   1.479       .  S
C42         C320   1.468       .  S
O43         V459   1.898       .  S
O43          C53   1.264       .  A
O44          V51   1.890       .  S
O44          C54   1.262       .  A
O45          V51   1.904       .  S
O45          C55   1.265       .  A
O46          V51   1.905       .  S
O46          C56   1.267       .  A
O47          V52   1.907       .  S
O47          C56   1.265       .  A
O48          V52   1.906       .  S
O48          C55   1.267       .  A
O49          V52   1.898       .  S
O49          C54   1.264       .  A
O50         V460   1.897       .  S
O50          C53   1.264       .  A
V51         O451   1.902       .  S
V51          V52   2.087       .  T
V52         O458   1.897       .  S
C53         C310   1.472       .  S
C54         C323   1.471       .  S
C55         C300   1.486       .  S
C56         C293   1.487       .  S
O57          V65   1.892       .  S
O57          C67   1.264       .  A
O58          V65   1.890       .  S
O58          C68   1.261       .  A
O59          V65   1.899       .  S
O59          C69   1.263       .  A
O60          V65   1.896       .  S
O60          C70   1.263       .  A
O61          V66   1.897       .  S
O61          C70   1.262       .  A
O62          V66   1.899       .  S
O62          C69   1.264       .  A
O63          V66   1.907       .  S
O63          C68   1.267       .  A
O64          V66   1.904       .  S
O64          C67   1.265       .  A
V65          V66   2.087       .  T
C67         C270   1.476       .  S
C68         C280   1.475       .  S
C69         C263   1.469       .  S
C70         C253   1.462       .  S
O71          V79   1.895   1_455  S
O71          C81   1.264       .  A
O72         V487   1.896       .  S
O72          C82   1.264       .  A
O73          V79   1.904       .  S
O73          C83   1.267       .  A
O74          V79   1.907       .  S
O74          C84   1.265       .  A
O75          V80   1.893       .  S
O75          C84   1.265       .  A
O76         V488   1.901       .  S
O76         C491   1.263       .  A
O77         V488   1.901       .  S
O77          C82   1.266       .  A
O78          V80   1.899   1_455  S
O78          C81   1.265       .  A
V79         O480   1.891       .  S
V79          V80   2.086       .  T
V80         O484   1.899       .  S
V80         O485   1.903       .  S
C81         C250   1.484       .  S
C82         C260   1.485       .  S
C83         O484   1.263       .  A
C83         C240   1.477   1_655  S
C84         C230   1.482       .  S
N85          C89   1.365       .  A
N85          C86   1.365   1_554  A
N85          N92   1.431       .  S
C86         C273   1.484       .  S
C86          C87   1.383       .  A
C87          C88   1.373   1_556  A
C87          H90   1.082       .  S
C88          C89   1.381       .  A
C88          H91   1.081       .  S
C89         C393   1.486       .  S
N92          C96   1.366   1_564  A
N92          C93   1.364   1_565  A
C93         C220   1.488       .  S
C93          C94   1.382       .  A
C94          C95   1.372       .  A
C94          H97   1.082       .  S
C95          C96   1.381   1_554  A
C95          H98   1.082   1_554  S
C96         C343   1.484       .  S
N99         C103   1.365       .  A
N99         C100   1.364       .  A
N99         N106   1.430       .  S
C100        C333   1.487       .  S
C100        C101   1.383       .  A
C101        C102   1.373       .  A
C101        H104   1.082       .  S
C102        C103   1.381       .  A
C102        H105   1.082       .  S
C103        C210   1.486       .  S
N106        C110   1.363       .  A
N106        C107   1.363       .  A
C107        C403   1.483       .  S
C107        C108   1.381       .  A
C108        C109   1.370       .  A
C108        H111   1.082       .  S
C109        C110   1.382       .  A
C109        H112   1.083       .  S
C110        C283   1.485       .  S
N113        C525   1.366       .  A
N113        C522   1.365       .  A
N113        N120   1.430       .  S
C114        C233   1.486       .  S
C114        N521   1.366       .  A
C114        C115   1.381       .  A
C115        C116   1.374       .  A
C115        H118   1.087       .  S
C116        C117   1.382       .  A
C116        H119   1.086       .  S
C117        C350   1.493       .  S
C117        N521   1.364       .  A
N120        C124   1.367   1_565  A
N120        C121   1.365   1_565  A
C121        C200   1.492       .  S
C121        C122   1.381       .  A
C122        C123   1.373       .  A
C122        H125   1.084       .  S
C123        C124   1.382       .  A
C123        H126   1.084       .  S
C124        C290   1.492       .  S
N127        C131   1.366   1_554  A
N127        C128   1.367       .  A
N127        N134   1.431       .  S
C128        C190   1.494       .  S
C128        C129   1.384       .  A
C129        C130   1.375       .  A
C129        H132   1.081       .  S
C130        C131   1.380   1_554  A
C130        H133   1.081   1_554  S
C131        C303   1.491       .  S
N134        C546   1.366       .  A
N134        C543   1.365   1_554  A
C135        C243   1.490       .  S
C135        N542   1.365   1_556  A
C135        C136   1.382       .  A
C136        C137   1.372   1_556  A
C136        H139   1.082       .  S
C137        C138   1.381       .  A
C137        H140   1.082       .  S
C138        C360   1.488       .  S
C138        N542   1.366       .  A
O141        V149   1.905       .  S
O141        C151   1.267       .  A
O142        V149   1.903       .  S
O142        C152   1.265       .  A
O143        V149   1.890       .  S
O143        C153   1.262       .  A
O144        V149   1.897       .  S
O144        C154   1.264       .  A
O145        V150   1.903       .  S
O145        C154   1.267       .  A
O146        V150   1.900       .  S
O146        C153   1.264       .  A
O147        V150   1.896       .  S
O147        C152   1.264       .  A
O148        V150   1.897       .  S
O148        C151   1.263       .  A
V149        V150   2.086       .  T
C151        C223   1.478       .  S
C152        C213   1.478       .  S
C153        C183   1.468       .  S
C154        C170   1.487       .  S
O155        V163   1.904       .  S
O155        C165   1.267       .  A
O156        V163   1.908       .  S
O156        C166   1.265       .  A
O157        V163   1.897       .  S
O157        C167   1.265       .  A
O158        V571   1.908   1_455  S
O158        C168   1.266       .  A
O159        V572   1.892       .  S
O159        C168   1.262       .  A
O160        V164   1.893       .  S
O160        C167   1.263       .  A
O161        V164   1.902       .  S
O161        C166   1.266       .  A
O162        V164   1.902       .  S
O162        C165   1.264       .  A
V163        O566   1.907       .  S
V163        V164   2.087       .  T
V164        O567   1.889       .  S
C165        C203   1.482       .  S
C166        C193   1.482       .  S
C167        C180   1.474       .  S
C168        C173   1.472       .  S
C169        C170   1.409       .  A
C169        C174   1.397       .  A
C169        F176   1.358       .  S
C170        C171   1.414       .  A
C171        C172   1.402       .  A
C171        F178   1.358       .  S
C172        C173   1.402       .  A
C172        F177   1.358       .  S
C173        C174   1.404       .  A
C174        F175   1.358       .  S
C179        C180   1.409       .  A
C179        C184   1.399       .  A
C179        F186   1.358       .  S
C180        C181   1.406       .  A
C181        C182   1.395       .  A
C181        F188   1.358       .  S
C182        C183   1.404       .  A
C182        F187   1.358       .  S
C183        C184   1.403       .  A
C184        F185   1.358       .  S
C189        C190   1.408       .  A
C189        C194   1.396       .  A
C189        F196   1.352       .  S
C190        C191   1.410       .  A
C191        C192   1.406       .  A
C191        F198   1.358       .  S
C192        C193   1.409       .  A
C192        F197   1.358       .  S
C193        C194   1.402       .  A
C194        F195   1.358       .  S
C199        C200   1.408       .  A
C199        C204   1.398       .  A
C199        F206   1.353       .  S
C200        C609   1.408       .  A
C201        C202   1.400       .  A
C201        C608   1.406       .  A
C201        F208   1.358   1_545  S
C202        C611   1.408       .  A
C202        F207   1.358       .  S
C203        C204   1.404       .  A
C203        C610   1.408       .  A
C204        F205   1.358       .  S
C209        C210   1.406       .  A
C209        C214   1.402       .  A
C209        F216   1.357       .  S
C210        C211   1.407       .  A
C211        C212   1.397       .  A
C211        F218   1.353       .  S
C212        C213   1.404       .  A
C212        F217   1.358       .  S
C213        C214   1.408       .  A
C214        F215   1.357       .  S
C219        C220   1.406       .  A
C219        C224   1.400       .  A
C219        F226   1.358   1_545  S
C220        C221   1.409       .  A
C221        C222   1.398       .  A
C221        F228   1.353       .  S
C222        C223   1.403       .  A
C222        F227   1.358       .  S
C223        C224   1.408       .  A
C224        F225   1.358       .  S
C229        C230   1.405       .  A
C229        C234   1.391       .  A
C229        F236   1.358   1_655  S
C230        C639   1.411       .  A
C231        C232   1.403       .  A
C231        C638   1.409       .  A
C231        F238   1.358       .  S
C232        C641   1.407       .  A
C232        F237   1.358   1_565  S
C233        C234   1.403       .  A
C233        C640   1.407       .  A
C234        F235   1.349       .  S
C239        C244   1.397       .  A
C239        C648   1.402       .  A
C239        F246   1.358       .  S
C240        C241   1.407       .  A
C240        C647   1.402   1_455  A
C241        C242   1.402       .  A
C241        F248   1.358       .  S
C242        C243   1.408       .  A
C242        F247   1.358       .  S
C243        C652   1.409   1_455  A
C244        C651   1.409       .  A
C244        F245   1.352       .  S
C249        C250   1.412       .  A
C249        C254   1.397       .  A
C249        F256   1.358       .  S
C250        C251   1.413       .  A
C251        C252   1.397       .  A
C251        F258   1.358       .  S
C252        C253   1.399       .  A
C252        F257   1.358       .  S
C253        C254   1.400       .  A
C254        F255   1.358       .  S
C259        C260   1.411       .  A
C259        C264   1.399       .  A
C259        F266   1.358       .  S
C260        C261   1.412       .  A
C261        C262   1.398       .  A
C261        F268   1.358       .  S
C262        C263   1.402       .  A
C262        F267   1.358       .  S
C263        C264   1.402       .  A
C264        F265   1.358       .  S
C269        C270   1.408       .  A
C269        C274   1.403       .  A
C269        F276   1.358       .  S
C270        C271   1.403       .  A
C271        C272   1.393       .  A
C271        F278   1.358       .  S
C272        C273   1.406       .  A
C272        F277   1.351       .  S
C273        C274   1.407       .  A
C274        F275   1.358   1_565  S
C279        C280   1.402       .  A
C279        C284   1.398       .  A
C279        F286   1.358       .  S
C280        C281   1.408       .  A
C281        C282   1.397       .  A
C281        F288   1.358       .  S
C282        C283   1.405       .  A
C282        F287   1.358       .  S
C283        C284   1.409       .  A
C284        F285   1.352       .  S
C289        C290   1.406       .  A
C289        C294   1.399       .  A
C289        F296   1.353       .  S
C290        C699   1.409       .  A
C291        C292   1.404   1_565  A
C291        C698   1.408   1_565  A
C291        F298   1.358       .  S
C292        C701   1.409       .  A
C292        F297   1.358       .  S
C293        C294   1.406       .  A
C293        C700   1.409       .  A
C294        F295   1.358       .  S
C299        C300   1.411       .  A
C299        C304   1.404       .  A
C299        F306   1.358       .  S
C300        C709   1.405       .  A
C301        C302   1.400       .  A
C301        C708   1.405   1_455  A
C301        F308   1.358       .  S
C302        C711   1.407   1_455  A
C302        F307   1.353       .  S
C303        C304   1.407       .  A
C303        C710   1.407       .  A
C304        F305   1.358       .  S
C309        C310   1.404       .  A
C309        C314   1.397       .  A
C309        F316   1.358       .  S
C310        C311   1.405       .  A
C311        C312   1.399       .  A
C311        F318   1.358       .  S
C312        C313   1.408       .  A
C312        F317   1.358       .  S
C313        C314   1.409       .  A
C314        F315   1.358       .  S
C319        C320   1.403       .  A
C319        C324   1.394       .  A
C319        F326   1.358       .  S
C320        C321   1.406       .  A
C321        C322   1.398       .  A
C321        F328   1.358       .  S
C322        C323   1.406       .  A
C322        F327   1.358       .  S
C323        C324   1.407       .  A
C324        F325   1.358       .  S
C329        C330   1.403       .  A
C329        C334   1.397       .  A
C329        F336   1.358       .  S
C330        C331   1.408       .  A
C331        C332   1.402       .  A
C331        F338   1.358       .  S
C332        C333   1.407       .  A
C332        F337   1.358       .  S
C333        C334   1.408       .  A
C334        F335   1.352       .  S
C339        C340   1.406       .  A
C339        C344   1.395       .  A
C339        F346   1.358       .  S
C340        C341   1.409       .  A
C341        C342   1.402       .  A
C341        F348   1.358       .  S
C342        C343   1.406       .  A
C342        F347   1.357   1_545  S
C343        C344   1.405       .  A
C344        F345   1.352       .  S
C349        C354   1.403       .  A
C349        C758   1.408       .  A
C349        F356   1.358   1_565  S
C350        C351   1.409       .  A
C350        C757   1.407       .  A
C351        C352   1.397       .  A
C351        F358   1.350       .  S
C352        C353   1.402       .  A
C352        F357   1.358   1_655  S
C353        C762   1.409       .  A
C354        C761   1.408       .  A
C354        F355   1.358       .  S
C359        C364   1.397       .  A
C359        C768   1.406       .  A
C359        F366   1.352       .  S
C360        C361   1.407       .  A
C360        C767   1.407       .  A
C361        C362   1.403       .  A
C361        F368   1.357       .  S
C362        C363   1.407       .  A
C362        F367   1.357       .  S
C363        C772   1.406   1_455  A
C364        C771   1.404       .  A
C364        F365   1.358       .  S
C369        C370   1.404       .  A
C369        C374   1.399       .  A
C369        F376   1.358       .  S
C370        C371   1.406       .  A
C371        C372   1.399       .  A
C371        F378   1.358       .  S
C372        C373   1.407       .  A
C372        F377   1.358       .  S
C373        C374   1.411       .  A
C374        F375   1.358       .  S
C379        C380   1.407       .  A
C379        C384   1.401       .  A
C379        F386   1.358       .  S
C380        C381   1.408       .  A
C381        C382   1.399       .  A
C381        F388   1.358       .  S
C382        C383   1.407       .  A
C382        F387   1.358       .  S
C383        C384   1.408       .  A
C384        F385   1.358       .  S
C389        C390   1.407       .  A
C389        C394   1.401       .  A
C389        F396   1.358       .  S
C390        C391   1.404       .  A
C391        C392   1.396       .  A
C391        F398   1.358       .  S
C392        C393   1.407       .  A
C392        F397   1.352       .  S
C393        C394   1.406       .  A
C394        F395   1.357   1_565  S
C399        C400   1.402       .  A
C399        C404   1.397       .  A
C399        F406   1.358       .  S
C400        C401   1.408       .  A
C401        C402   1.397       .  A
C401        F408   1.358       .  S
C402        C403   1.404       .  A
C402        F407   1.358       .  S
C403        C404   1.409       .  A
C404        F405   1.352       .  S
O409        V417   1.909       .  S
O409        C419   1.268       .  A
O410        V417   1.906       .  S
O410        C420   1.266       .  A
O411        V417   1.895       .  S
O411        C421   1.263       .  A
O412        V417   1.898       .  S
O412        C422   1.264       .  A
O413        V418   1.901       .  S
O413        C422   1.265       .  A
O414        V418   1.898       .  S
O414        C421   1.265       .  A
O415        V418   1.894       .  S
O415        C420   1.264       .  A
O416        V418   1.891       .  S
O416        C419   1.262       .  A
V417        V418   2.086       .  T
C419        C808   1.476       .  S
C420        C798   1.478       .  S
C421        C778   1.472       .  S
C422        C788   1.474       .  S
O423        V431   1.895       .  S
O423        C433   1.264       .  A
O424        C434   1.262       .  A
O425        V431   1.906       .  S
O426        C436   1.265       .  A
O428        V432   1.897       .  S
O428        C435   1.262       .  A
O429        V432   1.905       .  S
O429        C434   1.266       .  A
O430        C433   1.266       .  A
C433        C791   1.483       .  S
C434        C781   1.474       .  S
C435        C761   1.479       .  S
C436        C771   1.479       .  S
O437        V445   1.897       .  S
O437        C447   1.265       .  A
O438        V445   1.898       .  S
O438        C448   1.263       .  A
O439        V445   1.896       .  S
O439        C449   1.265       .  A
O440        V445   1.896       .  S
O440        C450   1.262       .  A
O441        V446   1.897       .  S
O441        C450   1.264       .  A
O442        V446   1.903       .  S
O442        C449   1.265       .  A
O443        V446   1.900       .  S
O443        C448   1.266       .  A
O444        V446   1.899       .  S
O444        C447   1.263       .  A
V445        V446   2.087       .  T
C447        C738   1.476       .  S
C448        C748   1.476       .  S
C449        C721   1.482       .  S
C450        C728   1.466       .  S
O451        C461   1.264       .  A
O452        V459   1.893   1_655  S
O452        C462   1.263       .  A
O453        V459   1.901       .  S
O453        C463   1.264       .  A
O454        V459   1.897       .  S
O454        C464   1.266       .  A
O455        V460   1.904       .  S
O455        C464   1.264       .  A
O456        V460   1.905       .  S
O456        C463   1.266       .  A
O457        V460   1.900   1_655  S
O457        C462   1.265       .  A
O458        C461   1.264       .  A
V459        V460   2.086       .  T
C461        C718   1.476       .  S
C462        C731   1.480       .  S
C463        C708   1.481   1_455  S
C464        C701   1.480       .  S
O465        V473   1.892       .  S
O465        C475   1.264       .  A
O466        V473   1.893       .  S
O466        C476   1.262       .  A
O467        V473   1.897       .  S
O467        C477   1.264       .  A
O468        V473   1.895       .  S
O468        C478   1.265       .  A
O469        V474   1.899       .  S
O469        C478   1.264       .  A
O470        V474   1.901       .  S
O470        C477   1.265       .  A
O471        V474   1.908       .  S
O471        C476   1.268       .  A
O472        V474   1.908       .  S
O472        C475   1.266       .  A
V473        V474   2.084       .  T
C475        C678   1.479       .  S
C476        C688   1.482       .  S
C477        C671   1.477       .  S
C478        C661   1.484       .  S
O479        V487   1.900       .  S
O479        C489   1.263       .  A
O480        C490   1.262       .  A
O481        V487   1.901       .  S
O481        C491   1.266       .  A
O482        V487   1.901       .  S
O482        C492   1.264       .  A
O483        V488   1.898       .  S
O483        C492   1.265       .  A
O485        C490   1.266       .  A
O486        V488   1.896       .  S
O486        C489   1.263       .  A
V487        V488   2.087       .  T
C489        C658   1.465       .  S
C490        C668   1.476       .  S
C491        C648   1.477       .  S
C492        C638   1.479       .  S
N493        C497   1.366       .  A
N493        C494   1.365   1_554  A
N493        N500   1.431       .  S
C494        C681   1.485       .  S
C494        C495   1.382   1_556  A
C495        C496   1.373       .  A
C495        H498   1.082   1_554  S
C496        C497   1.381       .  A
C496        H499   1.081       .  S
C497        C801   1.488       .  S
N500        C504   1.365   1_554  A
N500        C501   1.363       .  A
C501        C628   1.485   1_565  S
C501        C502   1.381   1_565  A
C502        C503   1.372       .  A
C502        H505   1.082       .  S
C503        C504   1.382   1_544  A
C503        H506   1.082   1_554  S
C504        C751   1.486   1_565  S
N507        C511   1.365       .  A
N507        C508   1.364       .  A
N507        N514   1.430       .  S
C508        C741   1.482       .  S
C508        C509   1.382       .  A
C509        C510   1.373       .  A
C509        H512   1.082       .  S
C510        C511   1.381       .  A
C510        H513   1.082       .  S
C511        C618   1.485       .  S
N514        C518   1.364       .  A
N514        C515   1.362       .  A
C515        C811   1.488       .  S
C515        C516   1.382       .  A
C516        C517   1.371       .  A
C516        H519   1.082       .  S
C517        C518   1.381       .  A
C517        H520   1.083       .  S
C518        C691   1.485       .  S
N521        N528   1.430   1_655  S
C522        C641   1.487       .  S
C522        C523   1.381       .  A
C523        C524   1.372       .  A
C523        H526   1.087       .  S
C524        C525   1.382       .  A
C524        H527   1.086       .  S
C525        C758   1.491       .  S
N528        C532   1.366       .  A
N528        C529   1.364   1_565  A
C529        C608   1.491       .  S
C529        C530   1.381   1_545  A
C530        C531   1.372       .  A
C530        H533   1.084   1_565  S
C531        C532   1.382       .  A
C531        H534   1.084   1_565  S
C532        C698   1.487   1_565  S
N535        C539   1.366   1_554  A
N535        C536   1.366       .  A
N535        N542   1.430   1_655  S
C536        C598   1.489       .  S
C536        C537   1.383       .  A
C537        C538   1.373   1_554  A
C537        H540   1.081       .  S
C538        C539   1.381       .  A
C538        H541   1.081       .  S
C539        C711   1.489       .  S
C543        C651   1.489       .  S
C543        C544   1.382       .  A
C544        C545   1.373   1_556  A
C544        H547   1.082       .  S
C545        C546   1.381       .  A
C545        H548   1.082       .  S
C546        C768   1.487       .  S
O549        V557   1.905       .  S
O549        C559   1.267       .  A
O550        V557   1.903       .  S
O550        C560   1.265       .  A
O551        V557   1.890       .  S
O551        C561   1.262       .  A
O552        V557   1.895       .  S
O552        C562   1.263       .  A
O553        V558   1.904       .  S
O553        C562   1.267       .  A
O554        V558   1.903       .  S
O554        C561   1.265       .  A
O555        V558   1.891       .  S
O555        C560   1.263       .  A
O556        V558   1.893       .  S
O556        C559   1.262       .  A
V557        V558   2.087       .  T
C559        C631   1.476       .  S
C560        C621   1.474       .  S
C561        C591   1.471       .  S
C562        C578   1.484       .  S
O563        V571   1.909   1_455  S
O563        C573   1.267       .  A
O564        V571   1.907       .  S
O564        C574   1.265       .  A
O565        V571   1.899       .  S
O565        C575   1.265       .  A
O566        C576   1.266       .  A
O567        C576   1.262       .  A
O568        V572   1.896   1_655  S
O568        C575   1.263       .  A
O569        V572   1.899   1_655  S
O569        C574   1.265       .  A
O570        V572   1.896       .  S
O570        C573   1.263       .  A
V571        V572   2.087   1_655  T
C573        C611   1.481       .  S
C574        C601   1.480       .  S
C575        C588   1.476       .  S
C576        C581   1.471       .  S
C577        C578   1.407       .  A
C577        C582   1.396       .  A
C577        F584   1.358       .  S
C578        C579   1.413       .  A
C579        C580   1.401       .  A
C579        F586   1.358       .  S
C580        C581   1.402       .  A
C580        F585   1.358       .  S
C581        C582   1.405       .  A
C582        F583   1.358       .  S
C587        C588   1.408       .  A
C587        C592   1.399       .  A
C587        F594   1.358       .  S
C588        C589   1.406       .  A
C589        C590   1.396       .  A
C589        F596   1.358       .  S
C590        C591   1.406       .  A
C590        F595   1.358       .  S
C591        C592   1.403       .  A
C592        F593   1.358       .  S
C597        C598   1.408       .  A
C597        C602   1.397   1_655  A
C597        F604   1.353   1_655  S
C598        C599   1.408       .  A
C599        C600   1.404       .  A
C599        F606   1.358       .  S
C600        C601   1.408       .  A
C600        F605   1.358       .  S
C601        C602   1.404   1_655  A
C602        F603   1.358       .  S
C607        C608   1.410   1_655  A
C607        C612   1.400       .  A
C607        F614   1.352       .  S
C609        C610   1.403       .  A
C609        F616   1.358   1_545  S
C610        F615   1.358       .  S
C611        C612   1.404   1_455  A
C612        F613   1.358       .  S
C617        C618   1.406       .  A
C617        C622   1.400       .  A
C617        F624   1.357       .  S
C618        C619   1.408       .  A
C619        C620   1.396       .  A
C619        F626   1.353       .  S
C620        C621   1.403       .  A
C620        F625   1.358       .  S
C621        C622   1.407       .  A
C622        F623   1.358       .  S
C627        C628   1.405       .  A
C627        C632   1.399       .  A
C627        F634   1.358   1_545  S
C628        C629   1.408       .  A
C629        C630   1.396       .  A
C629        F636   1.351       .  S
C630        C631   1.402       .  A
C630        F635   1.358       .  S
C631        C632   1.409       .  A
C632        F633   1.358       .  S
C637        C638   1.403       .  A
C637        C642   1.394       .  A
C637        F644   1.358       .  S
C639        C640   1.406       .  A
C639        F646   1.358       .  S
C640        F645   1.357   1_565  S
C641        C642   1.407       .  A
C642        F643   1.350       .  S
C647        C652   1.398       .  A
C647        F654   1.358       .  S
C648        C649   1.407       .  A
C649        C650   1.402       .  A
C649        F656   1.357       .  S
C650        C651   1.408       .  A
C650        F655   1.358       .  S
C652        F653   1.353       .  S
C657        C658   1.401       .  A
C657        C662   1.400       .  A
C657        F664   1.358       .  S
C658        C659   1.400       .  A
C659        C660   1.395       .  A
C659        F666   1.358       .  S
C660        C661   1.411       .  A
C660        F665   1.358       .  S
C661        C662   1.413       .  A
C662        F663   1.358       .  S
C667        C668   1.405       .  A
C667        C672   1.399       .  A
C667        F674   1.358       .  S
C668        C669   1.408       .  A
C669        C670   1.397       .  A
C669        F676   1.358       .  S
C670        C671   1.406       .  A
C670        F675   1.358       .  S
C671        C672   1.408       .  A
C672        F673   1.358       .  S
C677        C678   1.408       .  A
C677        C682   1.403       .  A
C677        F684   1.358       .  S
C678        C679   1.405       .  A
C679        C680   1.395       .  A
C679        F686   1.358       .  S
C680        C681   1.406       .  A
C680        F685   1.353       .  S
C681        C682   1.407       .  A
C682        F683   1.358   1_565  S
C687        C688   1.405       .  A
C687        C692   1.399       .  A
C687        F694   1.358       .  S
C688        C689   1.410       .  A
C689        C690   1.399       .  A
C689        F696   1.358       .  S
C690        C691   1.404       .  A
C690        F695   1.357       .  S
C691        C692   1.407       .  A
C692        F693   1.352       .  S
C697        C698   1.406       .  A
C697        C702   1.394   1_455  A
C697        F704   1.351   1_455  S
C699        C700   1.405       .  A
C699        F706   1.358   1_545  S
C700        F705   1.358       .  S
C701        C702   1.404   1_455  A
C702        F703   1.358       .  S
C707        C708   1.408       .  A
C707        C712   1.402       .  A
C707        F714   1.358       .  S
C709        C710   1.399       .  A
C709        F716   1.358       .  S
C710        F715   1.352       .  S
C711        C712   1.407       .  A
C712        F713   1.358       .  S
C717        C718   1.405       .  A
C717        C722   1.396       .  A
C717        F724   1.358       .  S
C718        C719   1.406       .  A
C719        C720   1.402       .  A
C719        F726   1.358       .  S
C720        C721   1.410       .  A
C720        F725   1.358       .  S
C721        C722   1.408       .  A
C722        F723   1.358       .  S
C727        C728   1.402       .  A
C727        C732   1.399       .  A
C727        F734   1.358       .  S
C728        C729   1.401       .  A
C729        C730   1.396       .  A
C729        F736   1.358       .  S
C730        C731   1.411       .  A
C730        F735   1.358       .  S
C731        C732   1.410       .  A
C732        F733   1.358       .  S
C737        C738   1.403       .  A
C737        C742   1.395       .  A
C737        F744   1.358       .  S
C738        C739   1.409       .  A
C739        C740   1.402       .  A
C739        F746   1.358       .  S
C740        C741   1.405       .  A
C740        F745   1.358       .  S
C741        C742   1.407       .  A
C742        F743   1.352       .  S
C747        C748   1.402       .  A
C747        C752   1.396       .  A
C747        F754   1.358       .  S
C748        C749   1.407       .  A
C749        C750   1.401       .  A
C749        F756   1.358       .  S
C750        C751   1.407       .  A
C750        F755   1.358   1_545  S
C751        C752   1.408       .  A
C752        F753   1.351       .  S
C757        C762   1.404       .  A
C757        F764   1.358   1_565  S
C758        C759   1.408       .  A
C759        C760   1.396       .  A
C759        F766   1.350       .  S
C760        C761   1.402       .  A
C760        F765   1.358       .  S
C762        F763   1.358       .  S
C767        C772   1.399   1_455  A
C767        F774   1.353   1_455  S
C768        C769   1.408       .  A
C769        C770   1.403       .  A
C769        F776   1.358       .  S
C770        C771   1.407       .  A
C770        F775   1.358       .  S
C772        F773   1.358       .  S
C777        C778   1.404       .  A
C777        C782   1.396       .  A
C777        F784   1.358       .  S
C778        C779   1.407       .  A
C779        C780   1.399       .  A
C779        F786   1.358       .  S
C780        C781   1.405       .  A
C780        F785   1.358       .  S
C781        C782   1.408       .  A
C782        F783   1.358       .  S
C787        C788   1.403       .  A
C787        C792   1.398       .  A
C787        F794   1.358       .  S
C788        C789   1.405       .  A
C789        C790   1.400       .  A
C789        F796   1.358       .  S
C790        C791   1.410       .  A
C790        F795   1.358       .  S
C791        C792   1.410       .  A
C792        F793   1.358       .  S
C797        C798   1.408       .  A
C797        C802   1.403       .  A
C797        F804   1.358       .  S
C798        C799   1.405       .  A
C799        C800   1.396       .  A
C799        F806   1.358       .  S
C800        C801   1.407       .  A
C800        F805   1.353       .  S
C801        C802   1.407       .  A
C802        F803   1.357   1_565  S
C807        C808   1.402       .  A
C807        C812   1.399       .  A
C807        F814   1.358       .  S
C808        C809   1.408       .  A
C809        C810   1.398       .  A
C809        F816   1.358       .  S
C810        C811   1.406       .  A
C810        F815   1.358       .  S
C811        C812   1.410       .  A
C812        F813   1.353       .  S
