geometry optimzed in LAMMPS
_audit_creation_date              2020-12-01 
_audit_creation_method            'lammps2cif' 
_symmetry_space_group_name_H-M    'P1' 
_symmetry_Int_Tables_number       1 
_symmetry_cell_setting            triclinic 
loop_ 
_symmetry_equiv_pos_as_xyz 
  x,y,z 
_cell_length_a                    60.24167208 
_cell_length_b                    60.250856639766184 
_cell_length_c                    60.24855712581804 
_cell_angle_alpha                 90.03466169227244 
_cell_angle_beta                  89.9109206482477 
_cell_angle_gamma                 90.02505292552412 
loop_ 
_atom_site_label 
_atom_site_type_symbol 
_atom_site_fract_x 
_atom_site_fract_y 
_atom_site_fract_z 
_atom_site_charge 
N1          N  0.67317235  0.72184634  0.73760099    -0.25800
N2          N  0.67311051  0.73736997  0.72207577    -0.33600
C3          C  0.65539801  0.75062015  0.72512905     0.02600
C4          C  0.64389754  0.74301224  0.74341489     0.08600
C5          C  0.65549916  0.72479562  0.75095272    -0.04500
H6          H  0.65113078  0.76457146  0.71467601     0.09300
H7          H  0.65132647  0.71431768  0.76492854     0.10500
Cu8        Cu  0.69670913  0.73956718  0.69711632     0.44200
Cu9        Cu  0.69687119  0.69700986  0.73968394     0.42000
Cu10       Cu  0.73926629  0.69719888  0.69724169     0.43900
N11         N  0.72166611  0.73753910  0.67350024    -0.33200
N12         N  0.73722254  0.72204680  0.67354961    -0.27400
C13         C  0.75057892  0.72504053  0.65588679    -0.03500
C14         C  0.74301026  0.74325851  0.64430077     0.08700
C15         C  0.72469939  0.75081690  0.65580723     0.02500
H16         H  0.76457268  0.71458483  0.65170240     0.10100
H17         H  0.71420968  0.76474596  0.65154866     0.09200
N18         N  0.73731183  0.67345309  0.72205293    -0.34600
N19         N  0.72178399  0.67338234  0.73760171    -0.26800
C20         C  0.72482522  0.65568702  0.75086377    -0.02000
C21         C  0.74311655  0.64419847  0.74323719     0.06600
C22         C  0.75066219  0.65580429  0.72499135     0.04700
H23         H  0.71435993  0.65141821  0.76483523     0.09800
H24         H  0.76463999  0.65164668  0.71448672     0.08600
N25         N  0.67332038  0.23456136  0.73765212    -0.25800
N26         N  0.67332093  0.21901801  0.72213341    -0.33600
C27         C  0.65562320  0.20572818  0.72514076     0.02600
C28         C  0.64406621  0.21333302  0.74339745     0.08600
C29         C  0.65562133  0.23158878  0.75096385    -0.04500
H30         H  0.65139987  0.19175890  0.71467216     0.09300
H31         H  0.65139398  0.24208125  0.76492221     0.10500
Cu32       Cu  0.69698656  0.21692025  0.69724722     0.44200
Cu33       Cu  0.69698279  0.25944403  0.73969027     0.42000
Cu34       Cu  0.73946538  0.25946616  0.69722016     0.43900
N35         N  0.72185795  0.21904338  0.67356580    -0.33200
N36         N  0.73737801  0.23458635  0.67355279    -0.27400
C37         C  0.75066369  0.23162019  0.65583294    -0.03500
C38         C  0.74308253  0.21336965  0.64427841     0.08700
C39         C  0.72484237  0.20576182  0.65585754     0.02500
H40         H  0.76461783  0.24211351  0.65159210     0.10100
H41         H  0.71436797  0.19179394  0.65164202     0.09200
N42         N  0.73735514  0.28317420  0.72206386    -0.34600
N43         N  0.72181465  0.28316185  0.73760199    -0.26800
C44         C  0.72478392  0.30085323  0.75090493    -0.02000
C45         C  0.74303800  0.31242270  0.74331597     0.06600
C46         C  0.75064008  0.30087599  0.72505078     0.04700
H47         H  0.71430390  0.30505331  0.76488855     0.09800
H48         H  0.76462142  0.30509781  0.71457673     0.08600
N49         N  0.21934655  0.28344569  0.72180560    -0.25800
N50         N  0.23488366  0.28338257  0.73730333    -0.33600
C51         C  0.23188691  0.30100043  0.75070249     0.02600
C52         C  0.21362406  0.31257267  0.74322471     0.08600
C53         C  0.20604052  0.30110568  0.72492240    -0.04500
H54         H  0.24236418  0.30515786  0.76467078     0.09300
H55         H  0.19206630  0.30536223  0.71450095     0.10500
Cu56       Cu  0.25976489  0.25971505  0.73928623     0.44200
Cu57       Cu  0.21721578  0.25987887  0.69683177     0.42000
Cu58       Cu  0.25963294  0.21729827  0.69685073     0.43900
N59         N  0.28332119  0.23472400  0.73728175    -0.33200
N60         N  0.28327413  0.21919912  0.72174569    -0.27400
C61         C  0.30085089  0.20577538  0.72478172    -0.03500
C62         C  0.31238201  0.21326791  0.74307815     0.08700
C63         C  0.30092824  0.23160571  0.75063256     0.02500
H64         H  0.30501057  0.19178291  0.71431062     0.10100
H65         H  0.30516116  0.24204925  0.76461543     0.09200
N66         N  0.23471068  0.21935739  0.67325552    -0.34600
N67         N  0.21920980  0.23490723  0.67324817    -0.26800
C68         C  0.20586715  0.23185199  0.65562189    -0.02000
C69         C  0.21339119  0.21353561  0.64411644     0.06600
C70         C  0.23165551  0.20598516  0.65563277     0.04700
H71         H  0.19191524  0.24232989  0.65140805     0.09800
H72         H  0.24209911  0.19199029  0.65142927     0.08600
N73         N  0.21900848  0.67335962  0.72146491    -0.25800
N74         N  0.23445675  0.67342445  0.73705078    -0.33600
C75         C  0.23137445  0.65581413  0.75041880     0.02600
C76         C  0.21314532  0.64424453  0.74282775     0.08600
C77         C  0.20567202  0.65570166  0.72449355    -0.04500
H78         H  0.24177355  0.65165989  0.76443900     0.09300
H79         H  0.19175326  0.65143907  0.71399105     0.10500
Cu80       Cu  0.25934496  0.69705819  0.73918282     0.44200
Cu81       Cu  0.21702704  0.69691277  0.69648829     0.42000
Cu82       Cu  0.25942699  0.73944738  0.69670307     0.43900
N83         N  0.28295485  0.72198352  0.73719527    -0.33200
N84         N  0.28299089  0.73748860  0.72165765    -0.27400
C85         C  0.30062955  0.75084302  0.72470553    -0.03500
C86         C  0.31210762  0.74332124  0.74300703     0.08700
C87         C  0.30056507  0.72504275  0.75055635     0.02500
H88         H  0.30487459  0.76479721  0.71422961     0.10100
H89         H  0.30474646  0.71458877  0.76453198     0.09200
N90         N  0.23461194  0.73741831  0.67299498    -0.34600
N91         N  0.21910422  0.72186418  0.67290907    -0.26800
C92         C  0.20580279  0.72494545  0.65526029    -0.02000
C93         C  0.21336136  0.74328649  0.64382349     0.06600
C94         C  0.23160539  0.75082110  0.65540431     0.04700
H95         H  0.19183848  0.71448608  0.65099969     0.09800
H96         H  0.24205269  0.76484083  0.65127988     0.08600
N97         N  0.28279131  0.72197852  0.21891931    -0.25800
N98         N  0.28276633  0.73755764  0.23440571    -0.33600
C99         C  0.30043551  0.75087827  0.23135732     0.02600
C100        C  0.31200236  0.74326244  0.21311051     0.08600
C101        C  0.30048022  0.72496301  0.20559261    -0.04500
H102        H  0.30463364  0.76487986  0.24179284     0.09300
H103        H  0.30472195  0.71445134  0.19165314     0.10500
Cu104      Cu  0.25910563  0.73971696  0.25930803     0.44200
Cu105      Cu  0.25915504  0.69704995  0.21689194     0.42000
Cu106      Cu  0.21664135  0.69722656  0.25932418     0.43900
N107        N  0.23417025  0.73768777  0.28294308    -0.33200
N108        N  0.21864737  0.72214916  0.28294691    -0.27400
C109        C  0.20531052  0.72515303  0.30062241    -0.03500
C110        C  0.21286042  0.74342635  0.31216236     0.08700
C111        C  0.23113672  0.75100684  0.30061668     0.02500
H112        H  0.19135198  0.71466103  0.30485203     0.10100
H113        H  0.24161024  0.76497234  0.30484166     0.09200
N114        N  0.21865921  0.67350525  0.23449284    -0.34600
N115        N  0.23421084  0.67343303  0.21896590    -0.26800
C116        C  0.23115863  0.65574722  0.20567210    -0.02000
C117        C  0.21283972  0.64427411  0.21325753     0.06600
C118        C  0.20528556  0.65587059  0.23150904     0.04700
H119        H  0.24163143  0.65147829  0.19170410     0.09800
H120        H  0.19128369  0.65172062  0.24198462     0.08600
N121        N  0.72127867  0.67339434  0.21939679    -0.25800
N122        N  0.73681667  0.67335974  0.23489295    -0.33600
C123        C  0.75012716  0.65570176  0.23180543     0.02600
C124        C  0.74254599  0.64420659  0.21352397     0.08600
C125        C  0.72427840  0.65575645  0.20602587    -0.04500
H126        H  0.76410385  0.65146748  0.24223233     0.09300
H127        H  0.71380244  0.65157256  0.19206428     0.10500
Cu128      Cu  0.73895783  0.69694742  0.25983244     0.44200
Cu129      Cu  0.69639955  0.69704914  0.21739322     0.42000
Cu130      Cu  0.69658781  0.73950842  0.25983298     0.43900
N131        N  0.73698247  0.72189456  0.28342822    -0.33200
N132        N  0.72149148  0.73745183  0.28342604    -0.27400
C133        C  0.72456140  0.75082754  0.30104143    -0.03500
C134        C  0.74282966  0.74326960  0.31254351     0.08700
C135        C  0.75033675  0.72494511  0.30104362     0.02500
H136        H  0.71413219  0.76483382  0.30524301     0.10100
H137        H  0.76429099  0.71446618  0.30524669     0.09200
N138        N  0.67289564  0.73753139  0.23501319    -0.34600
N139        N  0.67282206  0.72200049  0.21948304    -0.26800
C140        C  0.65514975  0.72506737  0.20621001    -0.02000
C141        C  0.64368488  0.74337438  0.21381477     0.06600
C142        C  0.65527367  0.75090703  0.23205261     0.04700
H143        H  0.65088038  0.71460811  0.19224976     0.09800
H144        H  0.65112241  0.76489078  0.24253868     0.08600
N145        N  0.73684913  0.28328698  0.23480643    -0.25800
N146        N  0.72132655  0.28330353  0.21929501    -0.33600
C147        C  0.72438420  0.30095265  0.20596928     0.02600
C148        C  0.74267522  0.31246073  0.21351250     0.08600
C149        C  0.75020909  0.30092614  0.23177264    -0.04500
H150        H  0.71392377  0.30517964  0.19201659     0.09300
H151        H  0.76417944  0.30513019  0.24223023     0.10500
Cu152      Cu  0.69637724  0.25971515  0.21724652     0.44200
Cu153      Cu  0.73887304  0.25967562  0.25972490     0.42000
Cu154      Cu  0.69645230  0.21724911  0.25977174     0.43900
N155        N  0.67278874  0.23476559  0.21934806    -0.33200
N156        N  0.67281713  0.21925308  0.23488164    -0.27400
C157        C  0.65517966  0.20588575  0.23188783    -0.03500
C158        C  0.64363337  0.21340310  0.21363032     0.08700
C159        C  0.65513429  0.23169358  0.20604646     0.02500
H160        H  0.65098569  0.19191984  0.24236861     0.10100
H161        H  0.65089980  0.24214225  0.19208286     0.09200
N162        N  0.72135681  0.21925518  0.28339505    -0.34600
N163        N  0.73688609  0.23478625  0.28337727    -0.26800
C164        C  0.75024017  0.23175101  0.30099470    -0.02000
C165        C  0.74269538  0.21346109  0.31252360     0.06600
C166        C  0.72440216  0.20590977  0.30102508     0.04700
H167        H  0.76422176  0.24221732  0.30518114     0.09800
H168        H  0.71394024  0.19192825  0.30524132     0.08600
N169        N  0.78873772  0.44392900  0.78864388    -0.25800
N170        N  0.80222048  0.43295762  0.80202322    -0.33600
C171        C  0.79919723  0.41102881  0.79907414     0.02600
C172        C  0.78306797  0.40818288  0.78310250     0.08600
C173        C  0.77675217  0.42926814  0.77679935    -0.04500
H174        H  0.80807579  0.39817683  0.80790851     0.09300
H175        H  0.76439372  0.43365975  0.76455512     0.10500
Cu176      Cu  0.82402891  0.44834979  0.82365831     0.44200
Cu177      Cu  0.78732313  0.47831884  0.78721390     0.42000
Cu178      Cu  0.82397567  0.50843484  0.82378307     0.43900
N179        N  0.84424849  0.46739649  0.84389778    -0.33200
N180        N  0.84423266  0.48935444  0.84395523    -0.27400
C181        C  0.85913019  0.49662270  0.85890030    -0.03500
C182        C  0.86887620  0.47834242  0.86860314     0.08700
C183        C  0.85915030  0.46008843  0.85880154     0.02500
H184        H  0.86256093  0.51389875  0.86241234     0.10100
H185        H  0.86259489  0.44280288  0.86221803     0.09200
N186        N  0.80220041  0.52373427  0.80203930    -0.34600
N187        N  0.78875905  0.51271547  0.78863012    -0.26800
C188        C  0.77682692  0.52733470  0.77670722    -0.02000
C189        C  0.78313182  0.54844660  0.78298095     0.06600
C190        C  0.79919906  0.54565366  0.79902351     0.04700
H191        H  0.76451590  0.52289620  0.76442279     0.09800
H192        H  0.80805737  0.55853914  0.80785587     0.08600
N193        N  0.16816321  0.44405278  0.78889531    -0.25800
N194        N  0.15478430  0.43306348  0.80241691    -0.33600
C195        C  0.15787596  0.41114077  0.79950049     0.02600
C196        C  0.17393908  0.40832233  0.78340850     0.08600
C197        C  0.18014619  0.42941557  0.77699574    -0.04500
H198        H  0.14906477  0.39827187  0.80841550     0.09300
H199        H  0.19240478  0.43382977  0.76461722     0.10500
Cu200      Cu  0.13295551  0.44841081  0.82415323     0.44200
Cu201      Cu  0.16941293  0.47842494  0.78728659     0.42000
Cu202      Cu  0.13270012  0.50847779  0.82393965     0.43900
N203        N  0.11265773  0.46745884  0.84440664    -0.33200
N204        N  0.11256434  0.48941650  0.84432720    -0.27400
C205        C  0.09760721  0.49669757  0.85925016    -0.03500
C206        C  0.08792674  0.47842811  0.86909127     0.08700
C207        C  0.09776294  0.46016606  0.85938420     0.02500
H208        H  0.09406361  0.51397688  0.86262666     0.10100
H209        H  0.09436624  0.44288384  0.86288774     0.09200
N210        N  0.15438484  0.52379243  0.80205087    -0.34600
N211        N  0.16784150  0.51279592  0.78860750    -0.26800
C212        C  0.17971830  0.52742730  0.77660191    -0.02000
C213        C  0.17335899  0.54852063  0.78286375     0.06600
C214        C  0.15732116  0.54571280  0.79897838     0.04700
H215        H  0.19203671  0.52300845  0.76428310     0.09800
H216        H  0.14844777  0.55858645  0.80782918     0.08600
N217        N  0.78805786  0.51272644  0.16800182    -0.25800
N218        N  0.80148260  0.52371236  0.15452254    -0.33600
C219        C  0.79843914  0.54563490  0.15747692     0.02600
C220        C  0.78236459  0.54845482  0.17355351     0.08600
C221        C  0.77609558  0.52736671  0.17991542    -0.04500
H222        H  0.80727853  0.55850120  0.14858586     0.09300
H223        H  0.76379383  0.52295742  0.19225278     0.10500
Cu224      Cu  0.82328445  0.50837993  0.13276475     0.44200
Cu225      Cu  0.78666668  0.47835880  0.16950674     0.42000
Cu226      Cu  0.82322196  0.44833892  0.13269806     0.43900
N227        N  0.84350805  0.48934005  0.11244694    -0.33200
N228        N  0.84348480  0.46738287  0.11242156    -0.27400
C229        C  0.85839111  0.46009516  0.09745212    -0.03500
C230        C  0.86815630  0.47836137  0.08768930     0.08700
C231        C  0.85842624  0.49662823  0.09749172     0.02500
H232        H  0.86182454  0.44281396  0.09397289     0.10100
H233        H  0.86189173  0.51390943  0.09405004     0.09200
N234        N  0.80150988  0.43300435  0.15454496    -0.34600
N235        N  0.78810852  0.44398972  0.16805180    -0.26800
C236        C  0.77621840  0.42934840  0.18003262    -0.02000
C237        C  0.78251360  0.40825956  0.17368888     0.06600
C238        C  0.79852572  0.41108150  0.15755109     0.04700
H239        H  0.76394418  0.43375723  0.19239914     0.09800
H240        H  0.80735923  0.39821559  0.14864931     0.08600
N241        N  0.16718994  0.51277417  0.16785368    -0.25800
N242        N  0.15377388  0.52375373  0.15441522    -0.33600
C243        C  0.15678278  0.54567961  0.15740033     0.02600
C244        C  0.17283152  0.54851159  0.17345668     0.08600
C245        C  0.17911816  0.52742199  0.17977083    -0.04500
H246        H  0.14793740  0.55853993  0.14854509     0.09300
H247        H  0.19140583  0.52301815  0.19208207     0.10500
Cu248      Cu  0.13202203  0.50836391  0.13270878     0.44200
Cu249      Cu  0.16854681  0.47839676  0.16929919     0.42000
Cu250      Cu  0.13179088  0.44825685  0.13282523     0.43900
N251        N  0.11171830  0.48931480  0.11253957    -0.33200
N252        N  0.11162597  0.46735621  0.11257740    -0.27400
C253        C  0.09667805  0.46009535  0.09767819    -0.03500
C254        C  0.08700673  0.47837946  0.08790753     0.08700
C255        C  0.09683295  0.49662861  0.09762061     0.02500
H256        H  0.09315583  0.44282095  0.09424970     0.10100
H257        H  0.09345918  0.51391537  0.09414112     0.09200
N258        N  0.15359343  0.43298448  0.15456059    -0.34600
N259        N  0.16706556  0.44401613  0.16792829    -0.26800
C260        C  0.17904971  0.42941491  0.17981604    -0.02000
C261        C  0.17275117  0.40830052  0.17355860     0.06600
C262        C  0.15663042  0.41106980  0.15756715     0.04700
H263        H  0.19140932  0.43386867  0.19204618     0.09800
H264        H  0.14777831  0.39817250  0.14874603     0.08600
O265        O  0.95446294  0.45994077  0.95462546    -0.71400
O266        O  0.00136682  0.45990349  0.00186747    -0.72400
O267        O  0.95423718  0.45989146  0.00174417    -0.61000
O268        O  0.00158844  0.45995267  0.95474315    -0.69400
O269        O  0.00159561  0.49685014  0.95479982    -0.69000
O270        O  0.95424486  0.49678926  0.00180063    -0.60200
O271        O  0.00136789  0.49680360  0.00192113    -0.72800
O272        O  0.95446415  0.49684118  0.95467957    -0.71500
Cu273      Cu  0.97791318  0.45861616  0.97824214     1.04600
Cu274      Cu  0.97791816  0.49812688  0.97830225     1.04300
C275        C  0.94713474  0.47839399  0.94727412     0.94800
C276        C  0.00869488  0.47835075  0.00927517     0.93900
C277        C  0.94684488  0.47833205  0.00911711     0.86100
C278        C  0.00899199  0.47840987  0.94742943     0.92300
N279        N  0.44357474  0.78859609  0.78875370    -0.25800
N280        N  0.43256483  0.80207068  0.80216639    -0.33600
C281        C  0.41064300  0.79915430  0.79906922     0.02600
C282        C  0.40784935  0.78311242  0.78297158     0.08600
C283        C  0.42895405  0.77673092  0.77674725    -0.04500
H284        H  0.39775736  0.80804515  0.80789025     0.03200
H285        H  0.43338845  0.76440584  0.76445038     0.10500
Cu286      Cu  0.44786659  0.82377424  0.82403037     0.44200
Cu287      Cu  0.47794904  0.78699049  0.78743531     0.42000
Cu288      Cu  0.50789683  0.82362160  0.82404548     0.43900
N289        N  0.46693764  0.84399317  0.84430127    -0.33200
N290        N  0.48889790  0.84392915  0.84429829    -0.27400
C291        C  0.49622246  0.85882457  0.85923284    -0.03500
C292        C  0.47797696  0.86863437  0.86900061     0.08700
C293        C  0.45968420  0.85893951  0.85923884     0.02500
H294        H  0.51351558  0.86221810  0.86268582     0.10100
H295        H  0.44240801  0.86244571  0.86270056     0.09200
N296        N  0.52328529  0.80177631  0.80239657    -0.34600
N297        N  0.51231998  0.78832089  0.78895809    -0.26800
C298        C  0.52698212  0.77633650  0.77709029    -0.02000
C299        C  0.54806232  0.78262688  0.78344397     0.06600
C300        C  0.54521561  0.79873593  0.79946449     0.04700
H301        H  0.52259424  0.76401978  0.76477839     0.09800
H302        H  0.55806779  0.80761003  0.80832275     0.08600
N303        N  0.51250758  0.16780831  0.78885333    -0.25800
N304        N  0.52348430  0.15436493  0.80226988    -0.33600
C305        C  0.54541314  0.15742333  0.79932279     0.02600
C306        C  0.54824612  0.17353137  0.78331497     0.08600
C307        C  0.52716099  0.17980172  0.77698673    -0.04500
H308        H  0.55827277  0.14856527  0.80816454     0.09300
H309        H  0.52276320  0.19211610  0.76469496     0.10500
Cu310      Cu  0.50811309  0.13251832  0.82391151     0.44200
Cu311      Cu  0.47813077  0.16914606  0.78734887     0.42000
Cu312      Cu  0.44801767  0.13246784  0.82393135     0.43900
N313        N  0.48904829  0.11225289  0.84412603    -0.33200
N314        N  0.46708649  0.11223071  0.84414190    -0.27400
C315        C  0.45980155  0.09729295  0.85905748    -0.03500
C316        C  0.47807239  0.08756008  0.86878606     0.08700
C317        C  0.49634034  0.09733693  0.85902965     0.02500
H318        H  0.44251797  0.09381867  0.86252609     0.10100
H319        H  0.51362565  0.09390912  0.86246929     0.09200
N320        N  0.43271785  0.15419325  0.80212512    -0.34600
N321        N  0.44374388  0.16764227  0.78870804    -0.26800
C322        C  0.42913400  0.17953497  0.77673848    -0.02000
C323        C  0.40801689  0.17319575  0.78298932     0.06600
C324        C  0.41079777  0.15715049  0.79906695     0.04700
H325        H  0.43358293  0.19184580  0.76444367     0.09800
H326        H  0.39790344  0.14828145  0.80789776     0.08600
N327        N  0.44365768  0.78880779  0.16786281    -0.25800
N328        N  0.43270822  0.80223007  0.15440803    -0.33600
C329        C  0.41077273  0.79916888  0.15731182     0.02600
C330        C  0.40790631  0.78307743  0.17333514     0.08600
C331        C  0.42898373  0.77682198  0.17971479    -0.04500
H332        H  0.39793039  0.80801450  0.14843282     0.09300
H333        H  0.43336111  0.76452501  0.19203137     0.10500
Cu334      Cu  0.44818586  0.82404752  0.13280508     0.44200
Cu335      Cu  0.47803113  0.78754982  0.16939055     0.42000
Cu336      Cu  0.50830676  0.82429928  0.13286112     0.43900
N337        N  0.46722876  0.84438357  0.11263306    -0.33200
N338        N  0.48919115  0.84448859  0.11263656    -0.27400
C339        C  0.49642961  0.85946080  0.09772926    -0.03500
C340        C  0.47812684  0.86912834  0.08798840     0.08700
C341        C  0.45989229  0.85927665  0.09772936     0.02500
H342        H  0.51370220  0.86299814  0.09426939     0.10100
H343        H  0.44259642  0.86263386  0.09427383     0.09200
N344        N  0.52349154  0.80255613  0.15473257    -0.34600
N345        N  0.51241206  0.78910895  0.16811092    -0.26800
C346        C  0.52697036  0.77720910  0.18013026    -0.02000
C347        C  0.54810684  0.78353793  0.17395486     0.06600
C348        C  0.54539813  0.79958441  0.15786819     0.04700
H349        H  0.52247139  0.76489272  0.19240144     0.09800
H350        H  0.55833086  0.80843907  0.14907905     0.08600
N351        N  0.44344991  0.16816337  0.16781020    -0.25800
N352        N  0.43249045  0.15476975  0.15430454    -0.33600
C353        C  0.41056001  0.15784817  0.15719782     0.02600
C354        C  0.40771247  0.17391697  0.17325947     0.08600
C355        C  0.42878823  0.18014305  0.17968019    -0.04500
H356        H  0.39770837  0.14904283  0.14827080     0.09300
H357        H  0.43317503  0.19242890  0.19202339     0.10500
Cu358      Cu  0.44788508  0.13299184  0.13258156     0.44200
Cu359      Cu  0.47780784  0.16948616  0.16939538     0.42000
Cu360      Cu  0.50791769  0.13300925  0.13255687     0.43900
N361        N  0.46693177  0.11274932  0.11230045    -0.33200
N362        N  0.48889234  0.11275414  0.11228106    -0.27400
C363        C  0.49618287  0.09780910  0.09736012    -0.03500
C364        C  0.47791441  0.08804224  0.08762464     0.08700
C365        C  0.45964455  0.09780995  0.09739069     0.02500
H366        H  0.51346796  0.09434197  0.09390260     0.10100
H367        H  0.44236006  0.09434819  0.09396264     0.09200
N368        N  0.52319628  0.15457811  0.15456340    -0.34600
N369        N  0.51217369  0.16794040  0.16807624    -0.26800
C370        C  0.52678030  0.17974720  0.18015554    -0.02000
C371        C  0.54788952  0.17343925  0.17387436     0.06600
C372        C  0.54511375  0.15750598  0.15766819     0.04700
H373        H  0.52233355  0.19199262  0.19252740     0.09800
H374        H  0.55800832  0.14870658  0.14876872     0.08600
O375        O  0.45953531  0.00191247  0.00188865    -0.71400
O376        O  0.45954068  0.95466205  0.95486309    -0.72400
O377        O  0.45956446  0.95480047  0.00197860    -0.61000
O378        O  0.45950174  0.00177953  0.95477307    -0.69400
O379        O  0.49640787  0.00181756  0.95469975    -0.69000
O380        O  0.49647010  0.95483525  0.00191059    -0.60200
O381        O  0.49644526  0.95470572  0.95479031    -0.72800
O382        O  0.49643981  0.00195700  0.00181469    -0.71500
Cu383      Cu  0.45823009  0.97828697  0.97837865     1.04600
Cu384      Cu  0.49774814  0.97833049  0.97830029     1.04300
C385        C  0.47798499  0.00931747  0.00919805     0.94800
C386        C  0.47799574  0.94730072  0.94748108     0.93900
C387        C  0.47802219  0.94747853  0.00932073     0.86100
C388        C  0.47794733  0.00913897  0.94736316     0.92300
N389        N  0.28266712  0.23489980  0.21898087    -0.25800
N390        N  0.28272672  0.21937708  0.23450288    -0.33600
C391        C  0.30039350  0.20607883  0.23140437     0.02600
C392        C  0.31186318  0.21365722  0.21308727     0.08600
C393        C  0.30029394  0.23190615  0.20558031    -0.04500
H394        H  0.30466102  0.19212727  0.24185692     0.09300
H395        H  0.30446707  0.24238526  0.19160540     0.10500
Cu396      Cu  0.25917987  0.21729618  0.25950775     0.44200
Cu397      Cu  0.25902964  0.25978308  0.21700955     0.42000
Cu398      Cu  0.21665669  0.25983273  0.25951165     0.43900
N399        N  0.23427340  0.21942621  0.28316131    -0.33200
N400        N  0.21875169  0.23495612  0.28316445    -0.27400
C401        C  0.20542680  0.23196857  0.30085077    -0.03500
C402        C  0.21297925  0.21371889  0.31239453     0.08700
C403        C  0.23124671  0.20613364  0.30084200     0.02500
H404        H  0.19146096  0.24244557  0.30507509     0.10100
H405        H  0.24170931  0.19217081  0.30505638     0.09200
N406        N  0.21865478  0.28347463  0.23461301    -0.34600
N407        N  0.23417213  0.28345225  0.21905345    -0.26800
C408        C  0.23115010  0.30108664  0.20571066    -0.02000
C409        C  0.21288192  0.31263159  0.21329565     0.06600
C410        C  0.20532882  0.30112693  0.23160021     0.04700
H411        H  0.24161072  0.30527235  0.19171051     0.09800
H412        H  0.19136126  0.30535324  0.24209086     0.08600
N413        N  0.78852147  0.78861257  0.51269666    -0.25800
N414        N  0.80193527  0.80209088  0.52366795    -0.33600
C415        C  0.79895418  0.79908580  0.54559587     0.02600
C416        C  0.78292849  0.78297848  0.54843793     0.08600
C417        C  0.77662473  0.77665304  0.52735331    -0.04500
H418        H  0.80779912  0.80796718  0.55845138     0.09300
H419        H  0.76434077  0.76431043  0.52295794     0.10500
Cu420      Cu  0.82366544  0.82388897  0.50830562     0.44200
Cu421      Cu  0.78708661  0.78715295  0.47832302     0.42000
Cu422      Cu  0.82390158  0.82365714  0.44826901     0.43900
N423        N  0.84399775  0.84406976  0.48924735    -0.33200
N424        N  0.84408442  0.84398118  0.46728990    -0.27400
C425        C  0.85901663  0.85890221  0.45998429    -0.03500
C426        C  0.86869076  0.86874359  0.47824071     0.08700
C427        C  0.85887953  0.85904457  0.49652006     0.02500
H428        H  0.86252052  0.86230226  0.44269903     0.10100
H429        H  0.86225540  0.86257829  0.51379733     0.09200
N430        N  0.80204151  0.80199223  0.43295266    -0.34600
N431        N  0.78853353  0.78860733  0.44394856    -0.26800
C432        C  0.77652306  0.77676381  0.42931426    -0.02000
C433        C  0.78284811  0.78307361  0.40822058     0.06600
C434        C  0.79900583  0.79904574  0.41103121     0.04700
H435        H  0.76414334  0.76451643  0.43373105     0.09800
H436        H  0.80789657  0.80788224  0.39815915     0.08600
N437        N  0.16762439  0.78895907  0.44383018    -0.25800
N438        N  0.15418149  0.80239294  0.43287557    -0.33600
C439        C  0.15712442  0.79935504  0.41094371     0.02600
C440        C  0.17315768  0.78326816  0.40808378     0.08600
C441        C  0.17950479  0.77699126  0.42916116    -0.04500
H442        H  0.14824770  0.80819719  0.39809887     0.09300
H443        H  0.19180374  0.76467467  0.43354260     0.10500
Cu444      Cu  0.13248874  0.82416460  0.44831467     0.44200
Cu445      Cu  0.16908265  0.78760448  0.47820362     0.42000
Cu446      Cu  0.13233293  0.82416546  0.50841451     0.43900
N447        N  0.11223519  0.84442677  0.46736874    -0.33200
N448        N  0.11216342  0.84442934  0.48932818    -0.27400
C449        C  0.09724140  0.85937941  0.49659192    -0.03500
C450        C  0.08756532  0.86914168  0.47830808     0.08700
C451        C  0.09736205  0.85936788  0.46005703     0.02500
H452        H  0.09373272  0.86284124  0.51386737     0.10100
H453        H  0.09396817  0.86281331  0.44277014     0.09200
N454        N  0.15424668  0.80249411  0.52363677    -0.34600
N455        N  0.16771142  0.78910719  0.51258434    -0.26800
C456        C  0.17973591  0.77724187  0.52716758    -0.02000
C457        C  0.17347372  0.78353352  0.54829141     0.06600
C458        C  0.15733139  0.79952149  0.54554724     0.04700
H459        H  0.19206928  0.76497327  0.52269482     0.09800
H460        H  0.14846803  0.80833478  0.55845902     0.08600
N461        N  0.78855967  0.16807990  0.51263725    -0.25800
N462        N  0.80195350  0.15459326  0.52358754    -0.33600
C463        C  0.79897727  0.15758208  0.54552013     0.02600
C464        C  0.78297117  0.17369148  0.54838548     0.08600
C465        C  0.77667686  0.18003475  0.52731313    -0.04500
H466        H  0.80779372  0.14867223  0.55835994     0.09300
H467        H  0.76439088  0.19236690  0.52293978     0.10500
Cu468      Cu  0.82357471  0.13276623  0.50816098     0.44200
Cu469      Cu  0.78709172  0.16946635  0.47826149     0.42000
Cu470      Cu  0.82354557  0.13262821  0.44808585     0.43900
N471        N  0.84376275  0.11245934  0.48911607    -0.33200
N472        N  0.84377064  0.11239769  0.46715756    -0.27400
C473        C  0.85868412  0.09743787  0.45989565    -0.03500
C474        C  0.86841528  0.08773404  0.47818280     0.08700
C475        C  0.85866303  0.09755020  0.49643137     0.02500
H476        H  0.86215178  0.09393204  0.44262096     0.10100
H477        H  0.86210642  0.09415754  0.51371900     0.09200
N478        N  0.80173843  0.15439257  0.43283361    -0.34600
N479        N  0.78838080  0.16789462  0.44387503    -0.26800
C480        C  0.77641928  0.17981260  0.42928022    -0.02000
C481        C  0.78261477  0.17343834  0.40815901     0.06600
C482        C  0.79864942  0.15734363  0.41092000     0.04700
H483        H  0.76417544  0.19217414  0.43374251     0.09800
H484        H  0.80744018  0.14844614  0.39801649     0.08600
N485        N  0.16750865  0.16826561  0.44397413    -0.25800
N486        N  0.15407338  0.15482005  0.43299188    -0.33600
C487        C  0.15703700  0.15786441  0.41106606     0.02600
C488        C  0.17307507  0.17396475  0.40824086     0.08600
C489        C  0.17940212  0.18024471  0.42933144    -0.04500
H490        H  0.14818477  0.14900390  0.39820112     0.09300
H491        H  0.19171126  0.19255747  0.43374029     0.10500
Cu492      Cu  0.13238725  0.13298978  0.44837815     0.44200
Cu493      Cu  0.16899258  0.16960414  0.47834615     0.42000
Cu494      Cu  0.13230237  0.13298286  0.50846090     0.43900
N495        N  0.11212650  0.11271796  0.46742570    -0.33200
N496        N  0.11209154  0.11271095  0.48938491    -0.27400
C497        C  0.09716275  0.09776547  0.49665536    -0.03500
C498        C  0.08743712  0.08800983  0.47837665     0.08700
C499        C  0.09721754  0.09778455  0.46012104     0.02500
H500        H  0.09368089  0.09430394  0.51393266     0.10100
H501        H  0.09378859  0.09434313  0.44283570     0.09200
N502        N  0.15418852  0.15466874  0.52374393    -0.34600
N503        N  0.16764552  0.16808486  0.51272189    -0.26800
C504        C  0.17967387  0.17994229  0.52733099    -0.02000
C505        C  0.17341745  0.17361368  0.54843940     0.06600
C506        C  0.15727768  0.15761349  0.54566040     0.04700
H507        H  0.19201123  0.19222241  0.52288661     0.09800
H508        H  0.14842765  0.14876489  0.55855187     0.08600
O509        O  0.00162960  0.95493402  0.45984628    -0.71400
O510        O  0.95443860  0.00195591  0.45982093    -0.72400
O511        O  0.00156449  0.00204892  0.45988681    -0.61000
O512        O  0.95450672  0.95483984  0.45977406    -0.69400
O513        O  0.95439716  0.95483064  0.49667468    -0.69000
O514        O  0.00146143  0.00204372  0.49678670    -0.60200
O515        O  0.95433340  0.00194185  0.49672216    -0.72800
O516        O  0.00152348  0.95491849  0.49674714    -0.71500
Cu517      Cu  0.97803883  0.97844511  0.45852667     1.04600
Cu518      Cu  0.97792442  0.97843321  0.49803950     1.04300
C519        C  0.00894903  0.94757933  0.47829853     0.94800
C520        C  0.94701339  0.00929432  0.47826969     0.93900
C521        C  0.00886716  0.00942193  0.47835060     0.86100
C522        C  0.94709912  0.94746103  0.47820752     0.92300
C523        C  0.02568984  0.02628411  0.47837565    -0.17000
C524        C  0.03983406  0.04044123  0.47836719     0.07100
C525        C  0.05640791  0.05700921  0.47835346     0.08900
C526        C  0.07056564  0.07115219  0.47835692    -0.17800
C527        C  0.93015627  0.02609541  0.47826872    -0.17000
C528        C  0.91599702  0.04021785  0.47827370     0.07100
C529        C  0.89942248  0.05675861  0.47825982     0.08900
C530        C  0.88527146  0.07088835  0.47822393    -0.17800
C531        C  0.02580913  0.93077788  0.47829808    -0.17000
C532        C  0.03997501  0.91665991  0.47828073     0.07100
C533        C  0.05655913  0.90012494  0.47826790     0.08900
C534        C  0.07071336  0.88599587  0.47827857    -0.17800
C535        C  0.88550980  0.88564528  0.47821790    -0.17000
C536        C  0.89962487  0.89982600  0.47819264     0.07100
C537        C  0.91615944  0.91642568  0.47817017     0.08900
C538        C  0.93028479  0.93059728  0.47817220    -0.17800
C539        C  0.20414239  0.20493035  0.33273001    -0.17000
C540        C  0.19689513  0.19773323  0.34994140     0.07100
C541        C  0.18855644  0.18944306  0.37021771     0.08900
C542        C  0.18149296  0.18239805  0.38757063    -0.17800
C543        C  0.38703371  0.18238505  0.18160029    -0.17000
C544        C  0.36966938  0.18944083  0.18861450     0.07100
C545        C  0.34938636  0.19771713  0.19693076     0.08900
C546        C  0.33217741  0.20489264  0.20419582    -0.17800
C547        C  0.47797552  0.02619937  0.02599930    -0.17000
C548        C  0.47795175  0.04037962  0.04011950     0.07100
C549        C  0.47792431  0.05697969  0.05665952     0.08900
C550        C  0.47791457  0.07115249  0.07078667    -0.17800
C551        C  0.47802659  0.93069547  0.02619064    -0.17000
C552        C  0.47801318  0.91659391  0.04036678     0.07100
C553        C  0.47802039  0.90007806  0.05696211     0.08900
C554        C  0.47806223  0.88596403  0.07112551    -0.17800
C555        C  0.47806977  0.07071385  0.88563347    -0.17000
C556        C  0.47803517  0.05658356  0.89977772     0.07100
C557        C  0.47797277  0.04004644  0.91634704     0.08900
C558        C  0.47793713  0.02592959  0.93050515    -0.17800
C559        C  0.47801729  0.88548677  0.88587455    -0.17000
C560        C  0.47803151  0.89963989  0.90002067     0.07100
C561        C  0.47802173  0.91623309  0.91656654     0.08900
C562        C  0.47800495  0.93041555  0.93068395    -0.17800
C563        C  0.18126502  0.38765832  0.18191793    -0.17000
C564        C  0.18839058  0.37033288  0.18892665     0.07100
C565        C  0.19677440  0.35009365  0.19721832     0.08900
C566        C  0.20403804  0.33292021  0.20444898    -0.17800
C567        C  0.07017258  0.47840780  0.07105914    -0.17000
C568        C  0.05605761  0.47840657  0.05690947     0.07100
C569        C  0.03954579  0.47837633  0.04032590     0.08900
C570        C  0.02545491  0.47835015  0.02615197    -0.17800
C571        C  0.88500854  0.47835859  0.07079156    -0.17000
C572        C  0.89916099  0.47834565  0.05662566     0.07100
C573        C  0.91575333  0.47832478  0.04005424     0.08900
C574        C  0.92993923  0.47831648  0.02592027    -0.17800
C575        C  0.07100613  0.47842254  0.88592393    -0.17000
C576        C  0.05679276  0.47842392  0.90003069     0.07100
C577        C  0.04013856  0.47842869  0.91654302     0.08900
C578        C  0.02591665  0.47842709  0.93064257    -0.17800
C579        C  0.88567782  0.47832091  0.88548006    -0.17000
C580        C  0.89977472  0.47832755  0.89964548     0.07100
C581        C  0.91627902  0.47836470  0.91623309     0.08900
C582        C  0.93037136  0.47839463  0.93040360    -0.17800
C583        C  0.56853583  0.18182612  0.18235340    -0.17000
C584        C  0.58587472  0.18888656  0.18940208     0.07100
C585        C  0.60613443  0.19724769  0.19767095     0.08900
C586        C  0.62332731  0.20452637  0.20484923    -0.17800
C587        C  0.77412362  0.38759003  0.18212555    -0.17000
C588        C  0.76709109  0.37023339  0.18917320     0.07100
C589        C  0.75877588  0.34996233  0.19747567     0.08900
C590        C  0.75153071  0.33276604  0.20469362    -0.17800
C591        C  0.77417395  0.18187132  0.38751722    -0.17000
C592        C  0.76712053  0.18895319  0.37019334     0.07100
C593        C  0.75880239  0.19732306  0.34995933     0.08900
C594        C  0.75156022  0.20459703  0.33279613    -0.17800
C595        C  0.75135905  0.62391510  0.20462874    -0.17000
C596        C  0.75857803  0.60672986  0.19735514     0.07100
C597        C  0.76688260  0.58646999  0.18901186     0.08900
C598        C  0.77393073  0.56912070  0.18195823    -0.17800
C599        C  0.62339016  0.75227159  0.20505021    -0.17000
C600        C  0.60622246  0.75957947  0.19786079     0.07100
C601        C  0.58600860  0.76798957  0.18954921     0.08900
C602        C  0.56871377  0.77509798  0.18245889    -0.17800
C603        C  0.77437385  0.77473281  0.38755748    -0.17000
C604        C  0.76729355  0.76772553  0.37021286     0.07100
C605        C  0.75895310  0.75941477  0.34996667     0.08900
C606        C  0.75169967  0.75215254  0.33280204    -0.17800
C607        C  0.20394770  0.62397229  0.20445424    -0.17000
C608        C  0.19666609  0.60678875  0.19723438     0.07100
C609        C  0.18830757  0.58653451  0.18891947     0.08900
C610        C  0.18124502  0.56918694  0.18187047    -0.17800
C611        C  0.38721162  0.77463881  0.18170251    -0.17000
C612        C  0.36984135  0.76758797  0.18873078     0.07100
C613        C  0.34955252  0.75928297  0.19703947     0.08900
C614        C  0.33233691  0.75206754  0.20427193    -0.17800
C615        C  0.18151547  0.77480810  0.38739405    -0.17000
C616        C  0.18852732  0.76773913  0.37002471     0.07100
C617        C  0.19681922  0.75942521  0.34973317     0.08900
C618        C  0.20403981  0.75221701  0.33250997    -0.17800
C619        C  0.20428642  0.62396205  0.75168938    -0.17000
C620        C  0.19705294  0.60678219  0.75895482     0.07100
C621        C  0.18875609  0.58652682  0.76730961     0.08900
C622        C  0.18173525  0.56918092  0.77439328    -0.17800
C623        C  0.18194279  0.77510866  0.56891961    -0.17000
C624        C  0.18900750  0.76800480  0.58622672     0.07100
C625        C  0.19731533  0.75957702  0.60643592     0.08900
C626        C  0.20453318  0.75223463  0.62357713    -0.17800
C627        C  0.38719419  0.77473904  0.77448995    -0.17000
C628        C  0.36985399  0.76770776  0.76740979     0.07100
C629        C  0.34959376  0.75939853  0.75908244     0.08900
C630        C  0.33240397  0.75216475  0.75184808    -0.17800
C631        C  0.20455264  0.20466184  0.62383280    -0.17000
C632        C  0.19732445  0.19738699  0.60665859     0.07100
C633        C  0.18899709  0.18903678  0.58641664     0.08900
C634        C  0.18191162  0.18199027  0.56908612    -0.17800
C635        C  0.38736215  0.18159668  0.77453829    -0.17000
C636        C  0.37002964  0.18865748  0.76747725     0.07100
C637        C  0.34979061  0.19702492  0.75915898     0.08900
C638        C  0.33263335  0.20432868  0.75192531    -0.17800
C639        C  0.20482898  0.33286287  0.75215814    -0.17000
C640        C  0.19764722  0.35004597  0.75948437     0.07100
C641        C  0.18938976  0.37030499  0.76789424     0.08900
C642        C  0.18236841  0.38765376  0.77498708    -0.17800
C643        C  0.62372628  0.20454539  0.75222341    -0.17000
C644        C  0.60652216  0.19733749  0.75947980     0.07100
C645        C  0.58626311  0.18902950  0.76783995     0.08900
C646        C  0.56891769  0.18197221  0.77491169    -0.17800
C647        C  0.75188472  0.20458371  0.62392515    -0.17000
C648        C  0.75912285  0.19738040  0.60670997     0.07100
C649        C  0.76747006  0.18909306  0.58643483     0.08900
C650        C  0.77454468  0.18207225  0.56907436    -0.17800
C651        C  0.75186570  0.33273253  0.75216477    -0.17000
C652        C  0.75912410  0.34991131  0.75941918     0.07100
C653        C  0.76749618  0.37015628  0.76774344     0.08900
C654        C  0.77459649  0.38750082  0.77476237    -0.17800
C655        C  0.62357283  0.75176835  0.75230164    -0.17000
C656        C  0.60637281  0.75894070  0.75959720     0.07100
C657        C  0.58610438  0.76720025  0.76797498     0.08900
C658        C  0.56874470  0.77421776  0.77504437    -0.17800
C659        C  0.75199427  0.62388175  0.75200663    -0.17000
C660        C  0.75926916  0.60669577  0.75920904     0.07100
C661        C  0.76763199  0.58644453  0.76751328     0.08900
C662        C  0.77470391  0.56910728  0.77455970    -0.17800
C663        C  0.75186871  0.75203631  0.62396614    -0.17000
C664        C  0.75913187  0.75922728  0.60675709     0.07100
C665        C  0.76747620  0.76751339  0.58647944     0.08900
C666        C  0.77452881  0.77455335  0.56911934    -0.17800
loop_ 
_geom_bond_atom_site_label_1 
_geom_bond_atom_site_label_2 
_geom_bond_distance 
_geom_bond_site_symmetry_2 
_ccdc_geom_bond_type 
N1            N2   1.323       .  A
N1            C5   1.345       .  A
N1           Cu9   2.073       .  S
N2            C3   1.345       .  A
N2           Cu8   2.072       .  S
C3            C4   1.379       .  A
C3            H6   1.082       .  S
C4            C5   1.379       .  A
C4          C655   1.436       .  S
C5            H7   1.082       .  S
Cu8          N11   2.072       .  S
Cu9          N19   2.073       .  S
Cu10         N12   2.073       .  S
Cu10         N18   2.073       .  S
N11          N12   1.323       .  A
N11          C15   1.345       .  A
N12          C13   1.345       .  A
C13          C14   1.379       .  A
C13          H16   1.082       .  S
C14          C15   1.379       .  A
C14         C663   1.437       .  S
C15          H17   1.082       .  S
N18          N19   1.323       .  A
N18          C22   1.345       .  A
N19          C20   1.345       .  A
C20          C21   1.380       .  A
C20          H23   1.082       .  S
C21          C22   1.380       .  A
C21         C659   1.437       .  S
C22          H24   1.082       .  S
N25          N26   1.323       .  A
N25          C29   1.345       .  A
N25         Cu33   2.072       .  S
N26          C27   1.345       .  A
N26         Cu32   2.071       .  S
C27          C28   1.379       .  A
C27          H30   1.082       .  S
C28          C29   1.379       .  A
C28         C643   1.436       .  S
C29          H31   1.082       .  S
Cu32         N35   2.071       .  S
Cu33         N43   2.072       .  S
Cu34         N36   2.072       .  S
Cu34         N42   2.072       .  S
N35          N36   1.323       .  A
N35          C39   1.345       .  A
N36          C37   1.345       .  A
C37          C38   1.379       .  A
C37          H40   1.082       .  S
C38          C39   1.379       .  A
C38         C647   1.436       .  S
C39          H41   1.082       .  S
N42          N43   1.323       .  A
N42          C46   1.345       .  A
N43          C44   1.345       .  A
C44          C45   1.379       .  A
C44          H47   1.082       .  S
C45          C46   1.379       .  A
C45         C651   1.437       .  S
C46          H48   1.082       .  S
N49          N50   1.323       .  A
N49          C53   1.345       .  A
N49         Cu57   2.072       .  S
N50          C51   1.345       .  A
N50         Cu56   2.073       .  S
C51          C52   1.379       .  A
C51          H54   1.082       .  S
C52          C53   1.379       .  A
C52         C639   1.437       .  S
C53          H55   1.082       .  S
Cu56         N59   2.073       .  S
Cu57         N67   2.072       .  S
Cu58         N60   2.073       .  S
Cu58         N66   2.073       .  S
N59          N60   1.323       .  A
N59          C63   1.345       .  A
N60          C61   1.345       .  A
C61          C62   1.379       .  A
C61          H64   1.082       .  S
C62          C63   1.380       .  A
C62         C638   1.437       .  S
C63          H65   1.082       .  S
N66          N67   1.323       .  A
N66          C70   1.345       .  A
N67          C68   1.345       .  A
C68          C69   1.379       .  A
C68          H71   1.082       .  S
C69          C70   1.379       .  A
C69         C631   1.437       .  S
C70          H72   1.082       .  S
N73          N74   1.323       .  A
N73          C77   1.345       .  A
N73         Cu81   2.073       .  S
N74          C75   1.345       .  A
N74         Cu80   2.071       .  S
C75          C76   1.379       .  A
C75          H78   1.082       .  S
C76          C77   1.379       .  A
C76         C619   1.436       .  S
C77          H79   1.082       .  S
Cu80         N83   2.071       .  S
Cu81         N91   2.073       .  S
Cu82         N84   2.073       .  S
Cu82         N90   2.073       .  S
N83          N84   1.323       .  A
N83          C87   1.345       .  A
N84          C85   1.345       .  A
C85          C86   1.379       .  A
C85          H88   1.082       .  S
C86          C87   1.379       .  A
C86         C630   1.437       .  S
C87          H89   1.082       .  S
N90          N91   1.323       .  A
N90          C94   1.345       .  A
N91          C92   1.345       .  A
C92          C93   1.379       .  A
C92          H95   1.082       .  S
C93          C94   1.379       .  A
C93         C626   1.437       .  S
C94          H96   1.082       .  S
N97          N98   1.323       .  A
N97         C101   1.345       .  A
N97        Cu105   2.073       .  S
N98          C99   1.345       .  A
N98        Cu104   2.072       .  S
C99         C100   1.379       .  A
C99         H102   1.082       .  S
C100        C101   1.379       .  A
C100        C614   1.436       .  S
C101        H103   1.082       .  S
Cu104       N107   2.072       .  S
Cu105       N115   2.073       .  S
Cu106       N108   2.072       .  S
Cu106       N114   2.072       .  S
N107        N108   1.323       .  A
N107        C111   1.345       .  A
N108        C109   1.345       .  A
C109        C110   1.379       .  A
C109        H112   1.082       .  S
C110        C111   1.379       .  A
C110        C618   1.436       .  S
C111        H113   1.082       .  S
N114        N115   1.323       .  A
N114        C118   1.345       .  A
N115        C116   1.345       .  A
C116        C117   1.379       .  A
C116        H119   1.082       .  S
C117        C118   1.379       .  A
C117        C607   1.437       .  S
C118        H120   1.082       .  S
N121        N122   1.323       .  A
N121        C125   1.345       .  A
N121       Cu129   2.072       .  S
N122        C123   1.345       .  A
N122       Cu128   2.072       .  S
C123        C124   1.379       .  A
C123        H126   1.082       .  S
C124        C125   1.379       .  A
C124        C595   1.436       .  S
C125        H127   1.082       .  S
Cu128       N131   2.072       .  S
Cu129       N139   2.072       .  S
Cu130       N132   2.072       .  S
Cu130       N138   2.072       .  S
N131        N132   1.323       .  A
N131        C135   1.345       .  A
N132        C133   1.345       .  A
C133        C134   1.379       .  A
C133        H136   1.082       .  S
C134        C135   1.379       .  A
C134        C606   1.436       .  S
C135        H137   1.082       .  S
N138        N139   1.323       .  A
N138        C142   1.345       .  A
N139        C140   1.345       .  A
C140        C141   1.379       .  A
C140        H143   1.082       .  S
C141        C142   1.379       .  A
C141        C599   1.437       .  S
C142        H144   1.082       .  S
N145        N146   1.323       .  A
N145        C149   1.345       .  A
N145       Cu153   2.073       .  S
N146        C147   1.345       .  A
N146       Cu152   2.072       .  S
C147        C148   1.379       .  A
C147        H150   1.082       .  S
C148        C149   1.379       .  A
C148        C590   1.436       .  S
C149        H151   1.082       .  S
Cu152       N155   2.072       .  S
Cu153       N163   2.073       .  S
Cu154       N156   2.073       .  S
Cu154       N162   2.073       .  S
N155        N156   1.323       .  A
N155        C159   1.345       .  A
N156        C157   1.345       .  A
C157        C158   1.379       .  A
C157        H160   1.082       .  S
C158        C159   1.379       .  A
C158        C586   1.436       .  S
C159        H161   1.082       .  S
N162        N163   1.323       .  A
N162        C166   1.345       .  A
N163        C164   1.345       .  A
C164        C165   1.379       .  A
C164        H167   1.082       .  S
C165        C166   1.379       .  A
C165        C594   1.437       .  S
C166        H168   1.082       .  S
N169        N170   1.323       .  A
N169        C173   1.346       .  A
N169       Cu177   2.076       .  S
N170        C171   1.345       .  A
N170       Cu176   2.071       .  S
C171        C172   1.379       .  A
C171        H174   1.082       .  S
C172        C173   1.380       .  A
C172        C654   1.437       .  S
C173        H175   1.082       .  S
Cu176       N179   2.071       .  S
Cu177       N187   2.076       .  S
Cu178       N180   2.073       .  S
Cu178       N186   2.072       .  S
N179        N180   1.323       .  A
N179        C183   1.345       .  A
N180        C181   1.345       .  A
C181        C182   1.379       .  A
C181        H184   1.082       .  S
C182        C183   1.379       .  A
C182        C579   1.436       .  S
C183        H185   1.082       .  S
N186        N187   1.323       .  A
N186        C190   1.346       .  A
N187        C188   1.346       .  A
C188        C189   1.380       .  A
C188        H191   1.082       .  S
C189        C190   1.379       .  A
C189        C662   1.438       .  S
C190        H192   1.082       .  S
N193        N194   1.323       .  A
N193        C197   1.346       .  A
N193       Cu201   2.075       .  S
N194        C195   1.345       .  A
N194       Cu200   2.072       .  S
C195        C196   1.379       .  A
C195        H198   1.082       .  S
C196        C197   1.380       .  A
C196        C642   1.437       .  S
C197        H199   1.082       .  S
Cu200       N203   2.073       .  S
Cu201       N211   2.075       .  S
Cu202       N204   2.072       .  S
Cu202       N210   2.072       .  S
N203        N204   1.323       .  A
N203        C207   1.345       .  A
N204        C205   1.345       .  A
C205        C206   1.379       .  A
C205        H208   1.082       .  S
C206        C207   1.379       .  A
C206        C575   1.437       .  S
C207        H209   1.082       .  S
N210        N211   1.323       .  A
N210        C214   1.345       .  A
N211        C212   1.346       .  A
C212        C213   1.380       .  A
C212        H215   1.082       .  S
C213        C214   1.379       .  A
C213        C622   1.437       .  S
C214        H216   1.082       .  S
N217        N218   1.323       .  A
N217        C221   1.346       .  A
N217       Cu225   2.074       .  S
N218        C219   1.345       .  A
N218       Cu224   2.071       .  S
C219        C220   1.379       .  A
C219        H222   1.082       .  S
C220        C221   1.380       .  A
C220        C598   1.437       .  S
C221        H223   1.082       .  S
Cu224       N227   2.072       .  S
Cu225       N235   2.074       .  S
Cu226       N228   2.072       .  S
Cu226       N234   2.072       .  S
N227        N228   1.323       .  A
N227        C231   1.345       .  A
N228        C229   1.345       .  A
C229        C230   1.379       .  A
C229        H232   1.082       .  S
C230        C231   1.379       .  A
C230        C571   1.437       .  S
C231        H233   1.082       .  S
N234        N235   1.323       .  A
N234        C238   1.345       .  A
N235        C236   1.346       .  A
C236        C237   1.380       .  A
C236        H239   1.082       .  S
C237        C238   1.379       .  A
C237        C587   1.437       .  S
C238        H240   1.082       .  S
N241        N242   1.323       .  A
N241        C245   1.346       .  A
N241       Cu249   2.075       .  S
N242        C243   1.345       .  A
N242       Cu248   2.071       .  S
C243        C244   1.379       .  A
C243        H246   1.082       .  S
C244        C245   1.380       .  A
C244        C610   1.437       .  S
C245        H247   1.082       .  S
Cu248       N251   2.072       .  S
Cu249       N259   2.075       .  S
Cu250       N252   2.073       .  S
Cu250       N258   2.072       .  S
N251        N252   1.323       .  A
N251        C255   1.345       .  A
N252        C253   1.345       .  A
C253        C254   1.379       .  A
C253        H256   1.082       .  S
C254        C255   1.379       .  A
C254        C567   1.436       .  S
C255        H257   1.082       .  S
N258        N259   1.323       .  A
N258        C262   1.345       .  A
N259        C260   1.346       .  A
C260        C261   1.380       .  A
C260        H263   1.082       .  S
C261        C262   1.379       .  A
C261        C563   1.437       .  S
C262        H264   1.082       .  S
O265       Cu273   2.008       .  S
O265        C275   1.276       .  A
O266       Cu273   2.009   1_454  S
O266        C276   1.276       .  A
O267       Cu273   2.010   1_554  S
O267        C277   1.276       .  A
O268       Cu273   2.010   1_455  S
O268        C278   1.276       .  A
O269       Cu274   2.010   1_455  S
O269        C278   1.276       .  A
O270       Cu274   2.010   1_554  S
O270        C277   1.276       .  A
O271       Cu274   2.008   1_454  S
O271        C276   1.276       .  A
O272       Cu274   2.008       .  S
O272        C275   1.276       .  A
Cu273      Cu274   2.381       .  S
C275        C582   1.434       .  S
C276        C570   1.434       .  S
C277        C574   1.435       .  S
C278        C578   1.435       .  S
N279        N280   1.323       .  A
N279        C283   1.346       .  A
N279       Cu287   2.074       .  S
N280        C281   1.345       .  A
N280       Cu286   2.073       .  S
C281        C282   1.379       .  A
C281        H284   1.082       .  S
C282        C283   1.380       .  A
C282        C627   1.437       .  S
C283        H285   1.082       .  S
Cu286       N289   2.073       .  S
Cu287       N297   2.074       .  S
Cu288       N290   2.071       .  S
Cu288       N296   2.071       .  S
N289        N290   1.323       .  A
N289        C293   1.345       .  A
N290        C291   1.345       .  A
C291        C292   1.379       .  A
C291        H294   1.082       .  S
C292        C293   1.379       .  A
C292        C559   1.436       .  S
C293        H295   1.082       .  S
N296        N297   1.323       .  A
N296        C300   1.345       .  A
N297        C298   1.346       .  A
C298        C299   1.380       .  A
C298        H301   1.082       .  S
C299        C300   1.379       .  A
C299        C658   1.436       .  S
C300        H302   1.082       .  S
N303        N304   1.323       .  A
N303        C307   1.346       .  A
N303       Cu311   2.075       .  S
N304        C305   1.345       .  A
N304       Cu310   2.071       .  S
C305        C306   1.379       .  A
C305        H308   1.082       .  S
C306        C307   1.380       .  A
C306        C646   1.436       .  S
C307        H309   1.082       .  S
Cu310       N313   2.071       .  S
Cu311       N321   2.075       .  S
Cu312       N314   2.073       .  S
Cu312       N320   2.073       .  S
N313        N314   1.323       .  A
N313        C317   1.345       .  A
N314        C315   1.345       .  A
C315        C316   1.379       .  A
C315        H318   1.082       .  S
C316        C317   1.379       .  A
C316        C555   1.436       .  S
C317        H319   1.082       .  S
N320        N321   1.323       .  A
N320        C324   1.346       .  A
N321        C322   1.346       .  A
C322        C323   1.380       .  A
C322        H325   1.082       .  S
C323        C324   1.379       .  A
C323        C635   1.438       .  S
C324        H326   1.082       .  S
N327        N328   1.323       .  A
N327        C331   1.346       .  A
N327       Cu335   2.074       .  S
N328        C329   1.345       .  A
N328       Cu334   2.071       .  S
C329        C330   1.379       .  A
C329        H332   1.082       .  S
C330        C331   1.380       .  A
C330        C611   1.437       .  S
C331        H333   1.082       .  S
Cu334       N337   2.071       .  S
Cu335       N345   2.075       .  S
Cu336       N338   2.073       .  S
Cu336       N344   2.073       .  S
N337        N338   1.323       .  A
N337        C341   1.345       .  A
N338        C339   1.345       .  A
C339        C340   1.379       .  A
C339        H342   1.082       .  S
C340        C341   1.379       .  A
C340        C554   1.436       .  S
C341        H343   1.082       .  S
N344        N345   1.323       .  A
N344        C348   1.345       .  A
N345        C346   1.346       .  A
C346        C347   1.380       .  A
C346        H349   1.082       .  S
C347        C348   1.379       .  A
C347        C602   1.437       .  S
C348        H350   1.082       .  S
N351        N352   1.323       .  A
N351        C355   1.346       .  A
N351       Cu359   2.074       .  S
N352        C353   1.345       .  A
N352       Cu358   2.071       .  S
C353        C354   1.379       .  A
C353        H356   1.082       .  S
C354        C355   1.380       .  A
C354        C543   1.436       .  S
C355        H357   1.082       .  S
Cu358       N361   2.072       .  S
Cu359       N369   2.074       .  S
Cu360       N362   2.073       .  S
Cu360       N368   2.072       .  S
N361        N362   1.323       .  A
N361        C365   1.345       .  A
N362        C363   1.345       .  A
C363        C364   1.379       .  A
C363        H366   1.082       .  S
C364        C365   1.379       .  A
C364        C550   1.436       .  S
C365        H367   1.082       .  S
N368        N369   1.323       .  A
N368        C372   1.345       .  A
N369        C370   1.346       .  A
C370        C371   1.380       .  A
C370        H373   1.082       .  S
C371        C372   1.379       .  A
C371        C583   1.437       .  S
C372        H374   1.082       .  S
O375       Cu383   2.009   1_544  S
O375        C385   1.276       .  A
O376       Cu383   2.009       .  S
O376        C386   1.276       .  A
O377       Cu383   2.008   1_554  S
O377        C387   1.276       .  A
O378       Cu383   2.008   1_545  S
O378        C388   1.276       .  A
O379       Cu384   2.008   1_545  S
O379        C388   1.276       .  A
O380       Cu384   2.009   1_554  S
O380        C387   1.276       .  A
O381       Cu384   2.009       .  S
O381        C386   1.276       .  A
O382       Cu384   2.009   1_544  S
O382        C385   1.276       .  A
Cu383      Cu384   2.381       .  S
C385        C547   1.435       .  S
C386        C562   1.435       .  S
C387        C551   1.434       .  S
C388        C558   1.434       .  S
N389        N390   1.323       .  A
N389        C393   1.345       .  A
N389       Cu397   2.072       .  S
N390        C391   1.345       .  A
N390       Cu396   2.071       .  S
C391        C392   1.379       .  A
C391        H394   1.082       .  S
C392        C393   1.379       .  A
C392        C546   1.436       .  S
C393        H395   1.082       .  S
Cu396       N399   2.072       .  S
Cu397       N407   2.072       .  S
Cu398       N400   2.073       .  S
Cu398       N406   2.073       .  S
N399        N400   1.323       .  A
N399        C403   1.345       .  A
N400        C401   1.345       .  A
C401        C402   1.379       .  A
C401        H404   1.082       .  S
C402        C403   1.379       .  A
C402        C539   1.436       .  S
C403        H405   1.082       .  S
N406        N407   1.323       .  A
N406        C410   1.345       .  A
N407        C408   1.345       .  A
C408        C409   1.379       .  A
C408        H411   1.082       .  S
C409        C410   1.379       .  A
C409        C566   1.437       .  S
C410        H412   1.082       .  S
N413        N414   1.323       .  A
N413        C417   1.346       .  A
N413       Cu421   2.075       .  S
N414        C415   1.345       .  A
N414       Cu420   2.072       .  S
C415        C416   1.379       .  A
C415        H418   1.082       .  S
C416        C417   1.380       .  A
C416        C666   1.437       .  S
C417        H419   1.082       .  S
Cu420       N423   2.072       .  S
Cu421       N431   2.075       .  S
Cu422       N424   2.072       .  S
Cu422       N430   2.071       .  S
N423        N424   1.323       .  A
N423        C427   1.345       .  A
N424        C425   1.345       .  A
C425        C426   1.379       .  A
C425        H428   1.082       .  S
C426        C427   1.379       .  A
C426        C535   1.436       .  S
C427        H429   1.082       .  S
N430        N431   1.323       .  A
N430        C434   1.345       .  A
N431        C432   1.346       .  A
C432        C433   1.380       .  A
C432        H435   1.082       .  S
C433        C434   1.379       .  A
C433        C603   1.437       .  S
C434        H436   1.082       .  S
N437        N438   1.323       .  A
N437        C441   1.346       .  A
N437       Cu445   2.075       .  S
N438        C439   1.345       .  A
N438       Cu444   2.071       .  S
C439        C440   1.379       .  A
C439        H442   1.082       .  S
C440        C441   1.380       .  A
C440        C615   1.437       .  S
C441        H443   1.082       .  S
Cu444       N447   2.072       .  S
Cu445       N455   2.075       .  S
Cu446       N448   2.073       .  S
Cu446       N454   2.073       .  S
N447        N448   1.323       .  A
N447        C451   1.345       .  A
N448        C449   1.345       .  A
C449        C450   1.379       .  A
C449        H452   1.082       .  S
C450        C451   1.379       .  A
C450        C534   1.436       .  S
C451        H453   1.082       .  S
N454        N455   1.323       .  A
N454        C458   1.345       .  A
N455        C456   1.346       .  A
C456        C457   1.380       .  A
C456        H459   1.082       .  S
C457        C458   1.379       .  A
C457        C623   1.437       .  S
C458        H460   1.082       .  S
N461        N462   1.323       .  A
N461        C465   1.346       .  A
N461       Cu469   2.075       .  S
N462        C463   1.345       .  A
N462       Cu468   2.070       .  S
C463        C464   1.379       .  A
C463        H466   1.082       .  S
C464        C465   1.380       .  A
C464        C650   1.437       .  S
C465        H467   1.082       .  S
Cu468       N471   2.071       .  S
Cu469       N479   2.075       .  S
Cu470       N472   2.073       .  S
Cu470       N478   2.073       .  S
N471        N472   1.323       .  A
N471        C475   1.345       .  A
N472        C473   1.345       .  A
C473        C474   1.379       .  A
C473        H476   1.082       .  S
C474        C475   1.379       .  A
C474        C530   1.436       .  S
C475        H477   1.082       .  S
N478        N479   1.323       .  A
N478        C482   1.346       .  A
N479        C480   1.346       .  A
C480        C481   1.380       .  A
C480        H483   1.082       .  S
C481        C482   1.379       .  A
C481        C591   1.437       .  S
C482        H484   1.082       .  S
N485        N486   1.323       .  A
N485        C489   1.346       .  A
N485       Cu493   2.074       .  S
N486        C487   1.345       .  A
N486       Cu492   2.072       .  S
C487        C488   1.379       .  A
C487        H490   1.082       .  S
C488        C489   1.380       .  A
C488        C542   1.437       .  S
C489        H491   1.082       .  S
Cu492       N495   2.072       .  S
Cu493       N503   2.075       .  S
Cu494       N496   2.073       .  S
Cu494       N502   2.072       .  S
N495        N496   1.323       .  A
N495        C499   1.345       .  A
N496        C497   1.345       .  A
C497        C498   1.379       .  A
C497        H500   1.082       .  S
C498        C499   1.379       .  A
C498        C526   1.437       .  S
C499        H501   1.082       .  S
N502        N503   1.323       .  A
N502        C506   1.345       .  A
N503        C504   1.346       .  A
C504        C505   1.380       .  A
C504        H507   1.082       .  S
C505        C506   1.379       .  A
C505        C634   1.437       .  S
C506        H508   1.082       .  S
O509       Cu517   2.009   1_455  S
O509        C519   1.276       .  A
O510       Cu517   2.009   1_545  S
O510        C520   1.276       .  A
O511       Cu517   2.009   1_445  S
O511        C521   1.276       .  A
O512       Cu517   2.009       .  S
O512        C522   1.276       .  A
O513       Cu518   2.009       .  S
O513        C522   1.276       .  A
O514       Cu518   2.009   1_445  S
O514        C521   1.276       .  A
O515       Cu518   2.009   1_545  S
O515        C520   1.276       .  A
O516       Cu518   2.009   1_455  S
O516        C519   1.276       .  A
Cu517      Cu518   2.381       .  S
C519        C531   1.434       .  S
C520        C527   1.434       .  S
C521        C523   1.435       .  S
C522        C538   1.434       .  S
C523        C524   1.205       .  T
C524        C525   1.412       .  S
C525        C526   1.205       .  T
C527        C528   1.205       .  T
C528        C529   1.411       .  S
C529        C530   1.205       .  T
C531        C532   1.205       .  T
C532        C533   1.411       .  S
C533        C534   1.205       .  T
C535        C536   1.205       .  T
C536        C537   1.411       .  S
C537        C538   1.205       .  T
C539        C540   1.205       .  T
C540        C541   1.412       .  S
C541        C542   1.206       .  T
C543        C544   1.205       .  T
C544        C545   1.411       .  S
C545        C546   1.205       .  T
C547        C548   1.205       .  T
C548        C549   1.411       .  S
C549        C550   1.205       .  T
C551        C552   1.205       .  T
C552        C553   1.411       .  S
C553        C554   1.205       .  T
C555        C556   1.205       .  T
C556        C557   1.411       .  S
C557        C558   1.205       .  T
C559        C560   1.205       .  T
C560        C561   1.411       .  S
C561        C562   1.205       .  T
C563        C564   1.206       .  T
C564        C565   1.412       .  S
C565        C566   1.206       .  T
C567        C568   1.205       .  T
C568        C569   1.411       .  S
C569        C570   1.205       .  T
C571        C572   1.205       .  T
C572        C573   1.412       .  S
C573        C574   1.205       .  T
C575        C576   1.205       .  T
C576        C577   1.412       .  S
C577        C578   1.206       .  T
C579        C580   1.205       .  T
C580        C581   1.411       .  S
C581        C582   1.205       .  T
C583        C584   1.205       .  T
C584        C585   1.412       .  S
C585        C586   1.205       .  T
C587        C588   1.205       .  T
C588        C589   1.411       .  S
C589        C590   1.205       .  T
C591        C592   1.206       .  T
C592        C593   1.412       .  S
C593        C594   1.206       .  T
C595        C596   1.205       .  T
C596        C597   1.411       .  S
C597        C598   1.205       .  T
C599        C600   1.205       .  T
C600        C601   1.412       .  S
C601        C602   1.206       .  T
C603        C604   1.205       .  T
C604        C605   1.411       .  S
C605        C606   1.205       .  T
C607        C608   1.205       .  T
C608        C609   1.412       .  S
C609        C610   1.206       .  T
C611        C612   1.205       .  T
C612        C613   1.412       .  S
C613        C614   1.205       .  T
C615        C616   1.205       .  T
C616        C617   1.412       .  S
C617        C618   1.205       .  T
C619        C620   1.205       .  T
C620        C621   1.411       .  S
C621        C622   1.205       .  T
C623        C624   1.206       .  T
C624        C625   1.412       .  S
C625        C626   1.206       .  T
C627        C628   1.206       .  T
C628        C629   1.412       .  S
C629        C630   1.205       .  T
C631        C632   1.205       .  T
C632        C633   1.412       .  S
C633        C634   1.206       .  T
C635        C636   1.206       .  T
C636        C637   1.412       .  S
C637        C638   1.206       .  T
C639        C640   1.205       .  T
C640        C641   1.412       .  S
C641        C642   1.206       .  T
C643        C644   1.205       .  T
C644        C645   1.411       .  S
C645        C646   1.205       .  T
C647        C648   1.205       .  T
C648        C649   1.411       .  S
C649        C650   1.205       .  T
C651        C652   1.205       .  T
C652        C653   1.412       .  S
C653        C654   1.206       .  T
C655        C656   1.205       .  T
C656        C657   1.411       .  S
C657        C658   1.205       .  T
C659        C660   1.206       .  T
C660        C661   1.412       .  S
C661        C662   1.206       .  T
C663        C664   1.205       .  T
C664        C665   1.412       .  S
C665        C666   1.206       .  T
