geometry optimzed in LAMMPS
_audit_creation_date              2020-12-01 
_audit_creation_method            'lammps2cif' 
_symmetry_space_group_name_H-M    'P1' 
_symmetry_Int_Tables_number       1 
_symmetry_cell_setting            triclinic 
loop_ 
_symmetry_equiv_pos_as_xyz 
  x,y,z 
_cell_length_a                    32.16316907 
_cell_length_b                    31.970804720765276 
_cell_length_c                    31.591335973562753 
_cell_angle_alpha                 92.85540216228107 
_cell_angle_beta                  89.40526033883701 
_cell_angle_gamma                 89.9323109989007 
loop_ 
_atom_site_label 
_atom_site_type_symbol 
_atom_site_fract_x 
_atom_site_fract_y 
_atom_site_fract_z 
_atom_site_charge 
C1          C  0.20035408  0.79811119  0.52068208     0.80000
N2          N  0.17256490  0.82981174  0.53090351    -0.78300
C3          C  0.16015408  0.85574737  0.50035614     0.82400
N4          N  0.17555968  0.85009873  0.46061930    -0.78300
C5          C  0.20202741  0.81890339  0.45001386     0.82500
N6          N  0.21400569  0.79236151  0.47976416    -0.80000
C7          C  0.91938756  0.06857006  0.51338468     0.80000
N8          N  0.94743701  0.03889651  0.52519427    -0.78300
C9          C  0.97274087  0.01993610  0.49477964     0.82400
N10         N  0.96988494  0.03095243  0.45416465    -0.78300
C11         C  0.94298929  0.06019796  0.44284423     0.82500
N12         N  0.91751725  0.07892168  0.47226352    -0.80000
C13         C  0.97255173  0.77483582  0.54583124     0.80000
N14         N  0.99012696  0.81336352  0.54494920    -0.78300
C15         C  0.99000028  0.83428881  0.50831663     0.82400
N16         N  0.96873323  0.81757275  0.47368553    -0.78300
C17         C  0.95018710  0.77907775  0.47599241     0.82500
N18         N  0.95329394  0.75854781  0.51161068    -0.80000
C19         C  0.61821555  0.79098268  0.10631111     0.80000
N20         N  0.61939558  0.82223990  0.07771026    -0.78300
C21         C  0.58325537  0.83771517  0.06117052     0.82400
N22         N  0.54610903  0.82217765  0.07442857    -0.78300
C23         C  0.54458675  0.79120669  0.10250619     0.82500
N24         N  0.58051120  0.77610851  0.11823027    -0.80000
C25         C  0.92509816  0.46231846  0.10743806     0.80000
N26         N  0.95983057  0.46799612  0.08256792    -0.78300
C27         C  0.98040327  0.43391027  0.06396920     0.82400
N28         N  0.96624320  0.39469689  0.07086238    -0.78300
C29         C  0.93152939  0.38910184  0.09454139     0.82500
N30         N  0.91151438  0.42275839  0.11253605    -0.80000
C31         C  0.94103106  0.49451322  0.85169166     0.80000
N32         N  0.92025883  0.46266650  0.83245899    -0.78300
C33         C  0.92779204  0.42279609  0.84197045     0.82400
N34         N  0.95731185  0.41427284  0.87148317    -0.78300
C35         C  0.97865815  0.44704204  0.89075218     0.82500
N36         N  0.96983873  0.48670331  0.88077621    -0.80000
C37         C  0.63211885  0.04474175  0.82972730     0.80000
N38         N  0.62691856  0.01957630  0.86290177    -0.78300
C39         C  0.58806948  0.01161389  0.87867990     0.82400
N40         N  0.55423140  0.03105875  0.86173105    -0.78300
C41         C  0.55999780  0.05651674  0.82829095     0.82500
N42         N  0.59860304  0.06232019  0.81297106    -0.80000
C43         C  0.18316463  0.49319362  0.82517614     0.80000
N44         N  0.19963325  0.45888379  0.80493388    -0.78300
C45         C  0.19323352  0.42044587  0.81921385     0.82400
N46         N  0.16908987  0.41587816  0.85462535    -0.78300
C47         C  0.15075398  0.45016178  0.87465500     0.82500
N48         N  0.15882315  0.48884385  0.86023372    -0.80000
C49         C  0.62504801  0.79852000  0.82537909     0.80000
N50         N  0.59010019  0.79013997  0.80416468    -0.78300
C51         C  0.55300770  0.80332800  0.81856333     0.82400
N52         N  0.55048095  0.82743908  0.85546830    -0.78300
C53         C  0.58634717  0.83893023  0.87630114     0.82500
N54         N  0.62361328  0.82275380  0.86203429    -0.80000
C55         C  0.06433185  0.32336466  0.41245763     0.80000
N56         N  0.10159800  0.30684264  0.39929406    -0.78300
C57         C  0.13816172  0.32571741  0.41027191     0.82400
N58         N  0.13727543  0.36196390  0.43539017    -0.78300
C59         C  0.10007790  0.37881954  0.44956305     0.82500
N60         N  0.06401142  0.35936240  0.43759333    -0.80000
O61         O  0.42392956  0.16634994  0.31719268    -0.81100
O62         O  0.32187480  0.24742658  0.16848459    -0.65800
O63         O  0.37038537  0.21984016  0.27394356    -1.12400
C64         C  0.25443791  0.13527950  0.29471175     1.05800
O65         O  0.25570820  0.24377439  0.18949607    -0.79000
O66         O  0.25592446  0.24671825  0.27433286    -0.66600
Ni67       Ni  0.42888555  0.20654602  0.27420830     1.34900
C68         C  0.26797767  0.24185336  0.31181834     0.84500
O69         O  0.38655531  0.27635598  0.21055573    -0.79600
O70         O  0.44383105  0.24457565  0.23092165    -0.89800
C71         C  0.28390900  0.25800058  0.16563051     0.84100
O72         O  0.42343191  0.16200731  0.23257158    -0.68000
O73         O  0.23562304  0.16329531  0.27476368    -0.87300
C74         C  0.41041601  0.16496759  0.19507144     0.84900
C75         C  0.42568126  0.27158270  0.20938054     1.06500
H76         H  0.31286362  0.16562850  0.21136864     0.38300
O77         O  0.30854447  0.18905462  0.23132872    -1.10000
O78         O  0.29539811  0.21412482  0.32018705    -0.66600
Ni79       Ni  0.33160673  0.17562929  0.28461347     1.26300
O80         O  0.38317304  0.19248841  0.18565266    -0.66900
O81         O  0.29357733  0.13098270  0.29260277    -0.79100
C82         C  0.39559585  0.15067482  0.33969087     0.84300
O83         O  0.35743104  0.15997101  0.33584480    -0.66300
Ni84       Ni  0.25024759  0.20275549  0.23196725     1.27400
Ni85       Ni  0.34773492  0.23259465  0.22002857     1.26100
H86         H  0.36542167  0.24331891  0.29381492     0.38800
C87         C  0.45178585  0.92710844  0.41758805     0.80000
N88         N  0.48645435  0.92772049  0.44215997    -0.78300
C89         C  0.50537989  0.96454506  0.45414592     0.82400
N90         N  0.48942476  0.00117986  0.44107344    -0.78300
C91         C  0.45483250  0.00132291  0.41644426     0.82500
N92         N  0.43632145  0.96414081  0.40502080    -0.80000
O93         O  0.25712850  0.66037969  0.17738628    -0.81100
O94         O  0.34457244  0.76732206  0.33112206    -0.65800
O95         O  0.30784616  0.71635695  0.22489940    -1.12400
C96         C  0.41810601  0.62717018  0.22840342     1.05800
O97         O  0.41162867  0.74981169  0.32635141    -0.79000
O98         O  0.41948050  0.73849359  0.24205075    -0.66600
Ni99       Ni  0.24938429  0.70608977  0.21847296     1.34900
C100        C  0.41170778  0.72808413  0.20357251     0.84500
O101        O  0.28743196  0.78628118  0.27550531    -0.79600
O102        O  0.23151397  0.74941355  0.25922345    -0.89800
C103        C  0.38251896  0.77320216  0.34135435     0.84100
O104        O  0.25180297  0.66789467  0.26234039    -0.68000
O105        O  0.43639924  0.65665265  0.24910844    -0.87300
C106        C  0.25999219  0.67730320  0.30097583     0.84900
C107        C  0.24906147  0.77931971  0.27993412     1.06500
H108        H  0.35202471  0.67489995  0.30230975     0.38300
O109        O  0.36086209  0.69304040  0.28039356    -1.10000
O110        O  0.38575984  0.69868229  0.19320935    -0.66600
Ni111      Ni  0.34371450  0.66860348  0.22680974     1.26300
O112        O  0.28401443  0.70815029  0.31196970    -0.66900
O113        O  0.37936365  0.62199171  0.23167138    -0.79100
C114        C  0.28622904  0.63663181  0.16304381     0.84300
O115        O  0.32382306  0.64145325  0.17485868    -0.66300
Ni116      Ni  0.41921556  0.70222296  0.28758192     1.27400
Ni117      Ni  0.32461030  0.74042791  0.27897349     1.26100
H118        H  0.31681422  0.73436268  0.20290667     0.38800
O119        O  0.89460456  0.28722994  0.31575124    -0.81100
O120        O  0.76967905  0.18934799  0.18531333    -0.65800
O121        O  0.83036804  0.23731770  0.28077954    -1.12400
C122        C  0.90297930  0.11398146  0.28301771     1.05800
O123        O  0.77895826  0.12168731  0.19619210    -0.79000
O124        O  0.79152737  0.13047217  0.28088520    -0.66600
Ni125      Ni  0.84868580  0.29414396  0.27842471     1.34900
C126        C  0.80579961  0.14282315  0.31677775     0.84500
O127        O  0.76094917  0.25830081  0.23442378    -0.79600
O128        O  0.80528226  0.31087861  0.24151539    -0.89800
C129        C  0.75990659  0.15089054  0.17882859     0.84100
O130        O  0.88260947  0.27848720  0.23048929    -0.68000
O131        O  0.86922493  0.09861907  0.26893013    -0.87300
C132        C  0.86806442  0.26626486  0.19463706     0.84900
C133        C  0.77186046  0.29526727  0.22681916     1.06500
H134        H  0.86116811  0.17396292  0.20584060     0.38300
O135        O  0.84345614  0.17195811  0.23065861    -1.10000
O136        O  0.83925940  0.16452834  0.32057487    -0.66600
Ni137      Ni  0.87261320  0.19475123  0.27950481     1.26300
O138        O  0.83467490  0.24446406  0.19088695    -0.66900
O139        O  0.91331109  0.15135434  0.27667044    -0.79100
C140        C  0.91333018  0.25803924  0.33360494     0.84300
O141        O  0.90386621  0.21958214  0.32654624    -0.66300
Ni142      Ni  0.82530728  0.11511230  0.23281743     1.27400
Ni143      Ni  0.80124362  0.21449696  0.23197080     1.26100
H144        H  0.81274566  0.23535433  0.30554181     0.38800
C145        C  0.75149397  0.94644001  0.40820079     0.80000
N146        N  0.71645850  0.94042045  0.43237158    -0.78300
C147        C  0.69383967  0.97417250  0.44843931     0.82400
N148        N  0.70622270  0.01357805  0.43963878    -0.78300
C149        C  0.74112639  0.01963701  0.41629299     0.82500
N150        N  0.76326877  0.98615787  0.40089294    -0.80000
O151        O  0.84259003  0.58867985  0.25167561    -0.81100
O152        O  0.84731243  0.77931547  0.32252735    -0.65800
O153        O  0.81751441  0.67179378  0.27492732    -1.12400
C154        C  0.84441864  0.71735231  0.14541156     1.05800
O155        O  0.83118022  0.81790438  0.26790480    -0.79000
O156        O  0.78008137  0.76766080  0.22451421    -0.66600
Ni157      Ni  0.83735033  0.62377863  0.30367983     1.34900
C158        C  0.76369346  0.73709359  0.20398420     0.84500
O159        O  0.80929398  0.71328637  0.35135212    -0.79600
O160        O  0.83863322  0.65264921  0.36058663    -0.89800
C161        C  0.83438937  0.81305194  0.30761359     0.84100
O162        O  0.89325299  0.63907962  0.29419369    -0.68000
O163        O  0.83510514  0.75461853  0.15886770    -0.87300
C164        C  0.91009254  0.66921984  0.31479166     0.84900
C165        C  0.82952885  0.68993861  0.37432746     1.06500
H166        H  0.88634206  0.73639796  0.24533713     0.38300
O167        O  0.85630496  0.73523243  0.24450753    -1.10000
O168        O  0.78283789  0.70126726  0.20036980    -0.66600
Ni169      Ni  0.83962652  0.68218480  0.22025845     1.26300
O170        O  0.89133045  0.70520632  0.31888974    -0.66900
O171        O  0.86508211  0.69437477  0.16842451    -0.79100
C172        C  0.84097502  0.59371344  0.21185590     0.84300
O173        O  0.82813539  0.62743727  0.19675125    -0.66300
Ni174      Ni  0.83619096  0.78318610  0.21575980     1.27400
Ni175      Ni  0.83465173  0.72485411  0.29925476     1.26100
H176        H  0.78751842  0.67083954  0.27402657     0.38800
C177        C  0.05952394  0.61272743  0.40383880     0.80000
N178        N  0.09718780  0.62586277  0.38992603    -0.78300
C179        C  0.13315388  0.60999861  0.40477198     0.82400
N180        N  0.13175161  0.58006756  0.43387869    -0.78300
C181        C  0.09460024  0.56607459  0.44867839     0.82500
N182        N  0.05840611  0.58220095  0.43309083    -0.80000
C183        C  0.49113654  0.32044162  0.98684678     0.80000
N184        N  0.51608472  0.35440607  0.97965785    -0.78300
C185        C  0.53363352  0.37669162  0.01326358     0.82400
N186        N  0.52515120  0.36539772  0.05338393    -0.78300
C187        C  0.50072133  0.33205769  0.06050437     0.82500
N188        N  0.48389490  0.30994615  0.02737056    -0.80000
O189        O  0.34826243  0.25772913  0.86070823    -0.81100
O190        O  0.28203020  0.19972007  0.67519085    -0.65800
O191        O  0.31538110  0.20452625  0.79286787    -1.12400
C192        C  0.44756724  0.17001000  0.74975318     1.05800
O193        O  0.33247159  0.15973311  0.64688134    -0.79000
O194        O  0.34610906  0.12970631  0.72172997    -0.66600
Ni195      Ni  0.29862352  0.25302211  0.82714469     1.34900
C196        C  0.36625235  0.11519021  0.75129150     0.84500
O197        O  0.24200594  0.20598296  0.74771680    -0.79600
O198        O  0.24515127  0.25716516  0.79776698    -0.89800
C199        C  0.29579024  0.17430821  0.64617057     0.84100
O200        O  0.33001616  0.27979905  0.78550852    -0.68000
O201        O  0.43055708  0.15413068  0.71640507    -0.87300
C202        C  0.30808887  0.29340532  0.75702371     0.84900
C203        C  0.22684500  0.23869332  0.76630737     1.06500
H204        H  0.36730670  0.23227760  0.71166445     0.38300
O205        O  0.35858907  0.20566430  0.72206258    -1.10000
O206        O  0.37494733  0.14006916  0.78287283    -0.66600
Ni207      Ni  0.37389330  0.20238181  0.78184894     1.26300
O208        O  0.29634052  0.26700399  0.72812578    -0.66900
O209        O  0.43176362  0.20127386  0.77000389    -0.79100
C210        C  0.38157429  0.23699131  0.86406036     0.84300
O211        O  0.38876733  0.20429874  0.84066181    -0.66300
Ni212      Ni  0.37901184  0.16096209  0.68466735     1.27400
Ni213      Ni  0.29941814  0.20525851  0.73334947     1.26100
H214        H  0.30580082  0.17949648  0.80517822     0.38800
C215        C  0.48798235  0.91462100  0.68530547     0.80000
N216        N  0.47419464  0.94971026  0.70642854    -0.78300
C217        C  0.48311662  0.98790314  0.69265789     0.82400
N218        N  0.50704905  0.99118997  0.65697183    -0.78300
C219        C  0.52231006  0.95611312  0.63576750     0.82500
N220        N  0.51176982  0.91778908  0.64960158    -0.80000
O221        O  0.32609659  0.70374050  0.63777599    -0.81100
O222        O  0.39848131  0.70734166  0.82678525    -0.65800
O223        O  0.34735682  0.68231827  0.72047849    -1.12400
C224        C  0.22540503  0.72225530  0.77825690     1.05800
O225        O  0.34422586  0.70376395  0.87117267    -0.79000
O226        O  0.29768340  0.65432788  0.82108808    -0.66600
Ni227      Ni  0.37658816  0.69804144  0.67013561     1.34900
C228        C  0.27821272  0.63890556  0.78936335     0.84500
O229        O  0.42200439  0.66761613  0.75484414    -0.79600
O230        O  0.43240653  0.69737246  0.69481673    -0.89800
C231        C  0.38301203  0.70050756  0.86288131     0.84100
O232        O  0.36992716  0.75438587  0.68971956    -0.68000
O233        O  0.23791894  0.71362148  0.81497190    -0.87300
C234        C  0.39052500  0.76990849  0.72058279     0.84900
C235        C  0.44547842  0.68772403  0.73101911     1.06500
H236        H  0.32806451  0.75556363  0.79090919     0.38300
O237        O  0.32335285  0.72563291  0.78882976    -1.10000
O238        O  0.27490301  0.65802469  0.75472359    -0.66600
Ni239      Ni  0.29755662  0.71156272  0.73614566     1.26300
O240        O  0.39525229  0.75058371  0.75490918    -0.66900
O241        O  0.24930459  0.74151840  0.75417822    -0.79100
C242        C  0.28733885  0.70677083  0.64625569     0.84300
O243        O  0.27230638  0.70069448  0.68265842    -0.66300
Ni244      Ni  0.29374757  0.71120161  0.83937981     1.27400
Ni245      Ni  0.37328388  0.69663587  0.77318215     1.26100
H246        H  0.34264200  0.65239858  0.71821259     0.38800
C247        C  0.05224487  0.60576294  0.68742439     0.80000
N248        N  0.08744792  0.61292643  0.70829290    -0.78300
C249        C  0.12433543  0.60040427  0.69300655     0.82400
N250        N  0.12641026  0.57712621  0.65550358    -0.78300
C251        C  0.09023872  0.56584597  0.63495053     0.82500
N252        N  0.05307258  0.58239402  0.64993812    -0.80000
C253        C  0.04430209  0.35089630  0.67046132     0.80000
N254        N  0.07763385  0.33497406  0.68908683    -0.78300
C255        C  0.11652416  0.34487952  0.67740441     0.82400
N256        N  0.12274131  0.37236068  0.64587425    -0.78300
C257        C  0.08885381  0.38962203  0.62696199     0.82500
N258        N  0.04979253  0.37790089  0.63900964    -0.80000
O259        O  0.84399412  0.20300044  0.86642552    -0.81100
O260        O  0.82309546  0.14771593  0.67095878    -0.65800
O261        O  0.86117928  0.18963446  0.77831236    -1.12400
C262        C  0.81325712  0.31589057  0.75096351     1.05800
O263        O  0.81973145  0.20666290  0.63604765    -0.79000
O264        O  0.87481792  0.24761231  0.68278510    -0.66600
Ni265      Ni  0.85343130  0.15532183  0.82613330     1.34900
C266        C  0.89454659  0.26439620  0.71348632     0.84500
O267        O  0.87492853  0.12049622  0.72809843    -0.79600
O268        O  0.85792471  0.10204904  0.79217193    -0.89800
C269        C  0.82502955  0.16712445  0.63699499     0.84100
O270        O  0.79543499  0.15425839  0.81852831    -0.68000
O271        O  0.81931893  0.30692616  0.71155057    -0.87300
C272        C  0.77755792  0.13763165  0.78643959     0.84900
C273        C  0.86243987  0.09307274  0.75241837     1.06500
H274        H  0.77948592  0.21247277  0.72749536     0.38300
O275        O  0.80879669  0.21829620  0.72438305    -1.10000
O276        O  0.87983552  0.26568310  0.75146762    -0.66600
Ni277      Ni  0.83031628  0.23989342  0.77692493     1.26300
O278        O  0.79253669  0.13959879  0.74881379    -0.66900
O279        O  0.79792933  0.28875478  0.77383276    -0.79100
C280        C  0.84205171  0.24272809  0.86403941     0.84300
O281        O  0.84993757  0.26057075  0.83009210    -0.66300
Ni282      Ni  0.81701414  0.25366691  0.67729414     1.27400
Ni283      Ni  0.84099711  0.16834356  0.72512995     1.26100
H284        H  0.89061094  0.19510752  0.77558855     0.38800
C285        C  0.72148211  0.91428233  0.67109527     0.80000
N286        N  0.74497639  0.94587259  0.68683821    -0.78300
C287        C  0.74250562  0.98446545  0.67209320     0.82400
N288        N  0.71519146  0.99222702  0.64024295    -0.78300
C289        C  0.69080920  0.95994380  0.62430522     0.82500
N290        N  0.69473503  0.92129534  0.63969185    -0.80000
O291        O  0.84738753  0.74564602  0.87350068    -0.81100
O292        O  0.89892247  0.67558784  0.69131397    -0.65800
O293        O  0.85828620  0.74183652  0.78387362    -1.12400
C294        C  0.73714962  0.67423535  0.76375249     1.05800
O295        O  0.84296573  0.67667750  0.65143002    -0.79000
O296        O  0.78920205  0.72913272  0.68719824    -0.66600
Ni297      Ni  0.89392885  0.74627787  0.83326587     1.34900
C298        C  0.77867579  0.75492658  0.71702533     0.84500
O299        O  0.92524521  0.74503709  0.73474944    -0.79600
O300        O  0.94630948  0.74128908  0.80021110    -0.89800
C301        C  0.88213443  0.67997734  0.65632161     0.84100
O302        O  0.89414067  0.68812280  0.83843669    -0.68000
O303        O  0.74489361  0.66881711  0.72403138    -0.87300
C304        C  0.90341449  0.66100271  0.80956999     0.84900
C305        C  0.95343079  0.73733385  0.76027895     1.06500
H306        H  0.83759774  0.64802555  0.74839336     0.38300
O307        O  0.83110283  0.67597305  0.74021758    -1.10000
O308        O  0.78112880  0.74708599  0.75582576    -0.66600
Ni309      Ni  0.81076199  0.70758447  0.78772561     1.26300
O310        O  0.90562757  0.66909141  0.77066377    -0.66900
O311        O  0.76529564  0.67096259  0.79071233    -0.79100
C312        C  0.80879863  0.73770812  0.86848414     0.84300
O313        O  0.79130049  0.74092417  0.83369475    -0.66300
Ni314      Ni  0.79648346  0.67074754  0.69069196     1.27400
Ni315      Ni  0.87895930  0.70942645  0.73691545     1.26100
H316        H  0.85141897  0.76962210  0.77543186     0.38800
C317        C  0.47033865  0.61086792  0.98991723     0.80000
N318        N  0.45628336  0.61532726  0.03075935    -0.78300
C319        C  0.47069959  0.59009187  0.06047408     0.82400
N320        N  0.49958190  0.56120219  0.04989475    -0.78300
C321        C  0.51471159  0.55612438  0.00998411     0.82500
N322        N  0.50011990  0.58100584  0.97940907    -0.80000
C323        C  0.75851377  0.34706616  0.99427532     0.80000
N324        N  0.72879148  0.37584571  0.98459489    -0.78300
C325        C  0.70750040  0.39716600  0.01647159     0.82400
N326        N  0.71557243  0.38913256  0.05726181    -0.78300
C327        C  0.74408956  0.36050168  0.06702290     0.82500
N328        N  0.76532061  0.33917267  0.03556766    -0.80000
C329        C  0.71734837  0.63172447  0.96735709     0.80000
N330        N  0.69512711  0.59553679  0.96685034    -0.78300
C331        C  0.68836900  0.57632646  0.00412241     0.82400
N332        N  0.70611700  0.59252712  0.04087034    -0.78300
C333        C  0.72859226  0.62869237  0.03990900     0.82500
N334        N  0.73336098  0.64737249  0.00346513    -0.80000
C335        C  0.61130934  0.07979994  0.09983308     0.80000
N336        N  0.57348059  0.09532121  0.11261319    -0.78300
C337        C  0.53753907  0.07633862  0.09990442     0.82400
N338        N  0.53948503  0.04104216  0.07373205    -0.78300
C339        C  0.57713207  0.02513677  0.06011397     0.82500
N340        N  0.61271223  0.04467469  0.07344663    -0.80000
C341        C  0.22453656  0.47998928  0.08648297     0.80000
N342        N  0.18853552  0.47868788  0.06413967    -0.78300
C343        C  0.16998805  0.44159898  0.05290061     0.82400
N344        N  0.18759559  0.40524752  0.06453780    -0.78300
C345        C  0.22357105  0.40568761  0.08706789     0.82500
N346        N  0.24178919  0.44324236  0.09784143    -0.80000
C347        C  0.19485597  0.08498194  0.51826129     0.80000
N348        N  0.16568405  0.05496553  0.52691275    -0.78300
C349        C  0.14712195  0.03226895  0.49407843     0.82400
N350        N  0.15793983  0.04007571  0.45336222    -0.78300
C351        C  0.18655423  0.06959544  0.44485285     0.82500
N352        N  0.20471530  0.09165335  0.47722558    -0.80000
O353        O  0.02656036  0.88630386  0.47055707    -0.74700
O354        O  0.10225591  0.97899746  0.46644932    -0.74700
O355        O  0.10958269  0.89582574  0.47008298    -0.74700
O356        O  0.01931887  0.96999691  0.46785365    -0.74800
O357        O  0.01856629  0.97915771  0.53824763    -0.74700
O358        O  0.11140742  0.90076516  0.54068348    -0.74700
O359        O  0.10420644  0.98664678  0.53683249    -0.74700
O360        O  0.02685171  0.89283210  0.54109780    -0.74700
Ni361      Ni  0.06435780  0.93263221  0.46656919     1.25400
Ni362      Ni  0.06508159  0.94014254  0.54202700     1.25400
C363        C  0.01494352  0.87348684  0.50650732     0.87500
C364        C  0.11627731  0.99790355  0.50010319     0.87500
C365        C  0.12550239  0.88560778  0.50495780     0.87500
C366        C  0.00443865  0.98778394  0.50177998     0.87700
O367        O  0.61834326  0.96867036  0.93007216    -0.74700
O368        O  0.61795110  0.88680474  0.01644387    -0.74700
O369        O  0.61926958  0.88361862  0.92945364    -0.74700
O370        O  0.61497860  0.97336327  0.01669164    -0.74800
O371        O  0.54580964  0.97179000  0.01484345    -0.74700
O372        O  0.55005561  0.88342466  0.92736982    -0.74700
O373        O  0.54886187  0.88516648  0.01451154    -0.74700
O374        O  0.54921637  0.96885684  0.92780575    -0.74700
Ni375      Ni  0.61999307  0.92815549  0.97340425     1.25400
Ni376      Ni  0.54604573  0.92720241  0.97132438     1.25400
C377        C  0.58452879  0.98192767  0.91408398     0.87500
C378        C  0.58343489  0.87162250  0.02932262     0.87500
C379        C  0.58518006  0.86966454  0.91318890     0.87500
C380        C  0.57946710  0.98809224  0.02939394     0.87700
O381        O  0.11193152  0.41017340  0.92441279    -0.74700
O382        O  0.03195017  0.40423941  0.01625048    -0.74700
O383        O  0.02720000  0.40716122  0.93069904    -0.74700
O384        O  0.11771418  0.40644872  0.01054003    -0.74800
O385        O  0.11556216  0.47612764  0.01777840    -0.74700
O386        O  0.02606624  0.47679207  0.93937873    -0.74700
O387        O  0.02996233  0.47383289  0.02430825    -0.74700
O388        O  0.10965361  0.47979115  0.93223120    -0.74700
Ni389      Ni  0.07238891  0.40446459  0.97051615     1.25400
Ni390      Ni  0.07035652  0.47899839  0.97886710     1.25400
C391        C  0.12308812  0.44632426  0.91242127     0.87500
C392        C  0.01624571  0.43785170  0.03398255     0.87500
C393        C  0.01196715  0.44269913  0.92192458     0.87500
C394        C  0.13231990  0.44119210  0.02622849     0.87700
O395        O  0.64936369  0.52037069  0.96986123    -0.74700
O396        O  0.57351276  0.42583190  0.97237960    -0.74700
O397        O  0.56465462  0.51193842  0.96931178    -0.74700
O398        O  0.65886999  0.43485564  0.97328426    -0.74800
O399        O  0.65681620  0.44308828  0.04374589    -0.74700
O400        O  0.56547361  0.51599362  0.03991114    -0.74700
O401        O  0.57402375  0.43261217  0.04288036    -0.74700
O402        O  0.64829828  0.52632438  0.04046188    -0.74700
Ni403      Ni  0.61167718  0.47297613  0.96841170     1.25400
Ni404      Ni  0.61105256  0.47968067  0.04393198     1.25400
C405        C  0.66098815  0.53901784  0.00478332     0.87500
C406        C  0.56154381  0.41350461  0.00866004     0.87500
C407        C  0.54995600  0.52667963  0.00501942     0.87500
C408        C  0.67307610  0.42660200  0.00991190     0.87700
O409        O  0.12792697  0.43521840  0.58132655    -0.74700
O410        O  0.12879836  0.51950292  0.49586043    -0.74700
O411        O  0.12663356  0.52110504  0.58326728    -0.74700
O412        O  0.13192296  0.43283429  0.49461781    -0.74800
O413        O  0.06279014  0.43164064  0.49239723    -0.74700
O414        O  0.05749441  0.52081290  0.58095520    -0.74700
O415        O  0.05967577  0.51814416  0.49381310    -0.74700
O416        O  0.05879478  0.43531014  0.57850808    -0.74700
Ni417      Ni  0.13127292  0.47737515  0.53866672     1.25400
Ni418      Ni  0.05735485  0.47650876  0.53620728     1.25400
C419        C  0.09255617  0.42141529  0.59393343     0.87500
C420        C  0.09430098  0.53296324  0.48094077     0.87500
C421        C  0.09142654  0.53492240  0.59753972     0.87500
C422        C  0.09826768  0.41655209  0.47988960     0.87700
O423        O  0.56282989  0.92594835  0.57771466    -0.74700
O424        O  0.64449674  0.93335957  0.48742819    -0.74700
O425        O  0.64641214  0.92969928  0.57268218    -0.74700
O426        O  0.55861100  0.92986081  0.49165368    -0.74800
O427        O  0.55573703  0.99946715  0.49927289    -0.74700
O428        O  0.64497707  0.99935757  0.58084482    -0.74700
O429        O  0.64129520  0.00293117  0.49522359    -0.74700
O430        O  0.56053492  0.99556449  0.58566195    -0.74700
Ni431      Ni  0.60307707  0.92731869  0.53185327     1.25400
Ni432      Ni  0.60039536  0.00182009  0.54020441     1.25400
C433        C  0.54951098  0.95940315  0.59765091     0.87500
C434        C  0.65776738  0.96959993  0.47789418     0.87500
C435        C  0.65976794  0.96389945  0.59060086     0.87500
C436        C  0.54187668  0.96471732  0.48275622     0.87700
C437        C  0.79724258  0.66951141  0.89727299    -0.21500
C438        C  0.78641606  0.71208094  0.89779905    -0.09600
C439        C  0.74748348  0.72493691  0.91364276     0.29300
C440        C  0.72032114  0.69567943  0.93010223    -0.21500
C441        C  0.73141957  0.65314536  0.93054899    -0.09600
C442        C  0.76992336  0.64019230  0.91321170     0.29300
F443        F  0.78295489  0.60001606  0.91607356    -0.20100
H444        H  0.82650855  0.65875114  0.88332094     0.17700
H445        H  0.69197113  0.70669682  0.94582413     0.17700
F446        F  0.73595161  0.76576131  0.91316332    -0.20100
C447        C  0.75017484  0.86851100  0.72384252    -0.21500
C448        C  0.72917467  0.87231381  0.68548521    -0.09600
C449        C  0.72152570  0.83650423  0.65917841     0.29300
C450        C  0.73799813  0.79815522  0.66956265    -0.21500
C451        C  0.76105235  0.79504534  0.70670185    -0.09600
C452        C  0.76599615  0.83022231  0.73449389     0.29300
F453        F  0.78787610  0.82817832  0.77087671    -0.20100
H454        H  0.75589980  0.89561491  0.74493992     0.17700
H455        H  0.73293450  0.77090913  0.64848269     0.17700
F456        F  0.70020221  0.83877044  0.62251361    -0.20100
C457        C  0.82114905  0.30528315  0.96818707    -0.21500
C458        C  0.78109598  0.32149524  0.96068364    -0.09600
C459        C  0.76193156  0.31050854  0.92200505     0.29300
C460        C  0.78204886  0.28375524  0.89201046    -0.21500
C461        C  0.82229341  0.26857699  0.89885348    -0.09600
C462        C  0.84181906  0.27931944  0.93734825     0.29300
F463        F  0.88074719  0.26528352  0.94485327    -0.20100
H464        H  0.83661122  0.31302708  0.99784358     0.17700
H465        H  0.76626899  0.27529885  0.86267045     0.17700
F466        F  0.72322324  0.32458331  0.91351430    -0.20100
C467        C  0.80646921  0.02783325  0.66805685    -0.21500
C468        C  0.77189613  0.01495660  0.69128900    -0.09600
C469        C  0.77312752  0.01948551  0.73580275     0.29300
C470        C  0.80626500  0.03988577  0.75619798    -0.21500
C471        C  0.83866293  0.05729928  0.73276892    -0.09600
C472        C  0.83949522  0.04910201  0.68842438     0.29300
F473        F  0.87205297  0.06212984  0.66484589    -0.20100
H474        H  0.80846544  0.01998441  0.63438044     0.17700
H475        H  0.80502138  0.04443941  0.79036662     0.17700
F476        F  0.74235085  0.00329970  0.75973091    -0.20100
C477        C  0.96077010  0.30026552  0.73472296    -0.21500
C478        C  0.93280607  0.28739799  0.70302290    -0.09600
C479        C  0.93962653  0.30016936  0.66120770     0.29300
C480        C  0.97460697  0.32355216  0.65127941    -0.21500
C481        C  0.00338987  0.33469991  0.68257373    -0.09600
C482        C  0.99583694  0.32364156  0.72464345     0.29300
F483        F  0.02271831  0.33513090  0.75596266    -0.20100
H484        H  0.95560952  0.29209984  0.76722579     0.17700
H485        H  0.98004777  0.33142465  0.61872246     0.17700
F486        F  0.91227618  0.29065467  0.62972274    -0.20100
C487        C  0.99600241  0.67343849  0.76689873    -0.21500
C488        C  0.98603646  0.70813836  0.74346877    -0.09600
C489        C  0.99556652  0.70643937  0.69982285     0.29300
C490        C  0.01181798  0.66983752  0.67969969    -0.21500
C491        C  0.01884050  0.63406873  0.70255931    -0.09600
C492        C  0.01098410  0.63654064  0.74665819     0.29300
F493        F  0.02121826  0.60411034  0.77074976    -0.20100
H494        H  0.98958570  0.67375612  0.80062743     0.17700
H495        H  0.02161590  0.67032961  0.64682967     0.17700
F496        F  0.98873208  0.74035154  0.67672344    -0.20100
C497        C  0.45740631  0.62695743  0.91425487    -0.21500
C498        C  0.45221718  0.63795310  0.95749907    -0.09600
C499        C  0.42673513  0.67300241  0.96917315     0.29300
C500        C  0.40613850  0.69509449  0.93824740    -0.21500
C501        C  0.41047049  0.68305495  0.89516386    -0.09600
C502        C  0.43620933  0.64850501  0.88358808     0.29300
F503        F  0.43723152  0.63235018  0.84307147    -0.20100
H504        H  0.47582292  0.59983128  0.90412524     0.17700
H505        H  0.38567176  0.72078771  0.94807310     0.17700
F506        F  0.42053693  0.68543136  0.01047813    -0.20100
C507        C  0.18912673  0.69366043  0.71369973    -0.21500
C508        C  0.19256554  0.69521730  0.75809575    -0.09600
C509        C  0.17460347  0.66247327  0.78004727     0.29300
C510        C  0.15814805  0.62747793  0.75769528    -0.21500
C511        C  0.15845175  0.62428165  0.71294174    -0.09600
C512        C  0.17439013  0.65798206  0.69122705     0.29300
F513        F  0.17227596  0.65803659  0.64833340    -0.20100
H514        H  0.19948257  0.71968601  0.69610220     0.17700
H515        H  0.14270630  0.60370102  0.77540348     0.17700
F516        F  0.17327484  0.66398656  0.82305588    -0.20100
C517        C  0.45566067  0.84730964  0.66293613    -0.21500
C518        C  0.46848515  0.87483762  0.69592700    -0.09600
C519        C  0.45540691  0.86789187  0.73779205     0.29300
C520        C  0.42931760  0.83417641  0.74608219    -0.21500
C521        C  0.41516267  0.80764329  0.71267696    -0.09600
C522        C  0.42899217  0.81440186  0.67093434     0.29300
F523        F  0.41784806  0.78845570  0.63762872    -0.20100
H524        H  0.46469921  0.85235930  0.63045600     0.17700
H525        H  0.42009587  0.82889607  0.77845145     0.17700
F526        F  0.46754659  0.89394113  0.77058564    -0.20100
C527        C  0.26052950  0.11982206  0.54292858    -0.21500
C528        C  0.21886599  0.10933876  0.55176489    -0.09600
C529        C  0.20134653  0.12470095  0.59056685     0.29300
C530        C  0.22553323  0.14876022  0.61996740    -0.21500
C531        C  0.26779649  0.15759433  0.61158071    -0.09600
C532        C  0.28468145  0.14310698  0.57225292     0.29300
F533        F  0.32504734  0.15072593  0.56231177    -0.20100
H534        H  0.27502223  0.10907249  0.51323733     0.17700
H535        H  0.21168901  0.15887433  0.65016199     0.17700
F536        F  0.16091423  0.11692358  0.59991735    -0.20100
C537        C  0.14788291  0.32265598  0.74367902    -0.21500
C538        C  0.14956475  0.32244736  0.69908346    -0.09600
C539        C  0.17302363  0.29128196  0.67712076     0.29300
C540        C  0.19479410  0.26150432  0.69944780    -0.21500
C541        C  0.19458324  0.26269827  0.74421501    -0.09600
C542        C  0.17070470  0.29383124  0.76608442     0.29300
F543        F  0.17001598  0.29699045  0.80908966    -0.20100
H544        H  0.12844931  0.34528913  0.76126922     0.17700
H545        H  0.21318615  0.23844647  0.68147227     0.17700
F546        F  0.17341307  0.28846310  0.63410761    -0.20100
C547        C  0.40097859  0.07026559  0.69544218    -0.21500
C548        C  0.39336380  0.07852518  0.73923182    -0.09600
C549        C  0.41720427  0.05700649  0.76821925     0.29300
C550        C  0.44785355  0.02825008  0.75323348    -0.21500
C551        C  0.45683246  0.02273380  0.70944050    -0.09600
C552        C  0.43308019  0.04423719  0.68086002     0.29300
F553        F  0.43934471  0.03844275  0.63838931    -0.20100
H554        H  0.38354465  0.08595629  0.67174827     0.17700
H555        H  0.46487429  0.01053546  0.77573876     0.17700
F556        F  0.41082943  0.06353493  0.81055177    -0.20100
C557        C  0.45619546  0.31600470  0.91550339    -0.21500
C558        C  0.46831571  0.29645437  0.95222889    -0.09600
C559        C  0.45400138  0.25506394  0.95791138     0.29300
C560        C  0.42753303  0.23466790  0.92828988    -0.21500
C561        C  0.41385908  0.25525685  0.89292875    -0.09600
C562        C  0.42891230  0.29596541  0.88654073     0.29300
F563        F  0.41640712  0.31682711  0.85248739    -0.20100
H564        H  0.46611303  0.34770059  0.91023473     0.17700
H565        H  0.41627760  0.20351023  0.93398936     0.17700
F566        F  0.46468835  0.23445263  0.99273994    -0.20100
C567        C  0.78181249  0.71527916  0.09940088    -0.21500
C568        C  0.81841447  0.69594110  0.11212144    -0.09600
C569        C  0.82322535  0.65261320  0.10237113     0.29300
C570        C  0.79065952  0.62874822  0.08463689    -0.21500
C571        C  0.75312134  0.64784943  0.07450383    -0.09600
C572        C  0.74943879  0.69162315  0.08141118     0.29300
F573        F  0.71543710  0.71192239  0.06756068    -0.20100
H574        H  0.77757605  0.74869205  0.10471899     0.17700
H575        H  0.79597701  0.59598480  0.07576263     0.17700
F576        F  0.85989517  0.63349599  0.10911343    -0.20100
C577        C  0.98282206  0.68442827  0.34668622    -0.21500
C578        C  0.94868453  0.65767119  0.33914062    -0.09600
C579        C  0.95091457  0.61714376  0.35568854     0.29300
C580        C  0.98579819  0.60379527  0.37790616    -0.21500
C581        C  0.02057008  0.62960732  0.38403782    -0.09600
C582        C  0.01852576  0.67044406  0.36819696     0.29300
F583        F  0.05097046  0.69716169  0.37385290    -0.20100
H584        H  0.98231425  0.71576621  0.33521071     0.17700
H585        H  0.98597640  0.57241101  0.38932975     0.17700
F586        F  0.91852215  0.59012806  0.35131737    -0.20100
C587        C  0.75892390  0.87032425  0.38326036    -0.21500
C588        C  0.77562919  0.91090854  0.38674859    -0.09600
C589        C  0.81412349  0.91805792  0.36582191     0.29300
C590        C  0.83416471  0.88601437  0.34132644    -0.21500
C591        C  0.81683730  0.84598024  0.33739400    -0.09600
C592        C  0.77892758  0.83845034  0.35846511     0.29300
F593        F  0.75979479  0.80078727  0.35278573    -0.20100
H594        H  0.72929835  0.86366072  0.39803433     0.17700
H595        H  0.86282876  0.89273592  0.32470602     0.17700
F596        F  0.83215556  0.95637657  0.36779814    -0.20100
C597        C  0.72606112  0.10190355  0.12496059    -0.21500
C598        C  0.72346834  0.13801837  0.15226171    -0.09600
C599        C  0.68397102  0.15576204  0.16039622     0.29300
C600        C  0.64819728  0.13755669  0.14215275    -0.21500
C601        C  0.65049405  0.10070732  0.11571129    -0.09600
C602        C  0.69031914  0.08358794  0.10666585     0.29300
F603        F  0.69490606  0.04819429  0.08150208    -0.20100
H604        H  0.75588752  0.08685367  0.11897118     0.17700
H605        H  0.61833992  0.15161695  0.15025926     0.17700
F606        F  0.67926826  0.18824427  0.18927826    -0.20100
C607        C  0.72742118  0.30924306  0.12003101    -0.21500
C608        C  0.74564850  0.34734909  0.11057714    -0.09600
C609        C  0.76298758  0.37289042  0.14308886     0.29300
C610        C  0.76609725  0.35800037  0.18378204    -0.21500
C611        C  0.75202354  0.31746908  0.19233773    -0.09600
C612        C  0.73000246  0.29456626  0.16068776     0.29300
F613        F  0.71445868  0.25621067  0.16753922    -0.20100
H614        H  0.71227290  0.29016790  0.09543128     0.17700
H615        H  0.78283063  0.37667982  0.20753024     0.17700
F616        F  0.77949840  0.41072095  0.13485778    -0.20100
C617        C  0.79454047  0.07498923  0.40860171    -0.21500
C618        C  0.75329847  0.06153416  0.40323788    -0.09600
C619        C  0.72686036  0.08382891  0.37739057     0.29300
C620        C  0.74311937  0.11520838  0.35271784    -0.21500
C621        C  0.78564828  0.12536200  0.35431205    -0.09600
C622        C  0.81035995  0.10757893  0.38520412     0.29300
F623        F  0.85105433  0.11799199  0.38906465    -0.20100
H624        H  0.81526440  0.05833441  0.42873642     0.17700
H625        H  0.72337982  0.12873057  0.32938959     0.17700
F626        F  0.68678821  0.07167170  0.37178504    -0.20100
C627        C  0.29949296  0.56371573  0.13158478    -0.21500
C628        C  0.27407131  0.59956173  0.13477930    -0.09600
C629        C  0.23383010  0.59643608  0.11733359     0.29300
C630        C  0.21898038  0.55808690  0.10003378    -0.21500
C631        C  0.24325388  0.52141973  0.10014260    -0.09600
C632        C  0.28438271  0.52506247  0.11501037     0.29300
F633        F  0.30985915  0.49118715  0.11461096    -0.20100
H634        H  0.33046089  0.56501865  0.14414787     0.17700
H635        H  0.18745217  0.55683913  0.08834332     0.17700
F636        F  0.20784181  0.62997455  0.11860750    -0.20100
C637        C  0.47339937  0.62928645  0.17390027    -0.21500
C638        C  0.43993516  0.60740641  0.19141183    -0.09600
C639        C  0.42042378  0.57565438  0.16650879     0.29300
C640        C  0.42982977  0.57056749  0.12327449    -0.21500
C641        C  0.45957844  0.59631152  0.10508270    -0.09600
C642        C  0.48316646  0.62374987  0.13098409     0.29300
F643        F  0.51443323  0.64649134  0.11436363    -0.20100
H644        H  0.48959310  0.65354265  0.19231776     0.17700
H645        H  0.41355851  0.54708508  0.10390368     0.17700
F646        F  0.39107221  0.55104425  0.18370807    -0.20100
C647        C  0.19861124  0.65267529  0.40036079    -0.21500
C648        C  0.17268095  0.62064808  0.38379022    -0.09600
C649        C  0.18141920  0.60244955  0.34347499     0.29300
C650        C  0.21309620  0.61846220  0.31856974    -0.24500
C651        C  0.23650475  0.65354631  0.33296059    -0.09600
C652        C  0.23071078  0.66884632  0.37527710     0.29300
F653        F  0.25380634  0.70125467  0.39135427    -0.20100
H654        H  0.19248194  0.66676824  0.43169623     0.17700
H655        H  0.21723975  0.60502645  0.28664444     0.17700
F656        F  0.15729152  0.57097523  0.32697218    -0.20100
C657        C  0.43500471  0.81078441  0.38781014    -0.21500
C658        C  0.39549221  0.81048840  0.36887878    -0.09600
C659        C  0.37328177  0.84851106  0.36958397     0.29300
C660        C  0.39107713  0.88587002  0.38653728    -0.21500
C661        C  0.43150326  0.88644701  0.40350003    -0.09600
C662        C  0.45277034  0.84794385  0.40487102     0.29300
F663        F  0.49190065  0.84627806  0.42034222    -0.20100
H664        H  0.45329358  0.78230482  0.38761280     0.17700
H665        H  0.37353241  0.91469181  0.38515576     0.17700
F666        F  0.33569471  0.85034760  0.35096877    -0.20100
C667        C  0.23117501  0.05897351  0.38000975    -0.21500
C668        C  0.19747423  0.07915754  0.40093081    -0.09600
C669        C  0.17835154  0.11299561  0.38229626     0.29300
C670        C  0.19460380  0.12840480  0.34487754    -0.21500
C671        C  0.23077011  0.11083292  0.32580678    -0.09600
C672        C  0.24761261  0.07444866  0.34253805     0.29300
F673        F  0.28106541  0.05501522  0.32381712    -0.20100
H674        H  0.24613945  0.03263415  0.39390305     0.17700
H675        H  0.18077850  0.15628152  0.33283815     0.17700
F676        F  0.14573082  0.13301099  0.40198152    -0.20100
C677        C  0.44339592  0.09650212  0.17145792    -0.21500
C678        C  0.43201061  0.13756317  0.16188735    -0.09600
C679        C  0.45116889  0.15507708  0.12656227     0.29300
C680        C  0.48383667  0.13375027  0.10452761    -0.21500
C681        C  0.49708433  0.09397979  0.11618320    -0.09600
C682        C  0.47515478  0.07474086  0.14864304     0.29300
F683        F  0.48697888  0.03646838  0.16094136    -0.20100
H684        H  0.42960592  0.08233020  0.19869478     0.17700
H685        H  0.50033039  0.14929883  0.07972344     0.17700
F686        F  0.44147104  0.19455018  0.11612277    -0.20100
C687        C  0.29789158  0.32607238  0.13234834    -0.21500
C688        C  0.27171613  0.29138819  0.13691201    -0.09600
C689        C  0.23109961  0.29313960  0.12083372     0.29300
C690        C  0.21640693  0.32964159  0.10309919    -0.21500
C691        C  0.24153931  0.36558925  0.10142246    -0.09600
C692        C  0.28303711  0.36287763  0.11521008     0.29300
F693        F  0.30912189  0.39605934  0.11325479    -0.20100
H694        H  0.32916462  0.32572335  0.14464230     0.17700
H695        H  0.18455111  0.33026757  0.09238360     0.17700
F696        F  0.20501254  0.26001462  0.12364676    -0.20100
C697        C  0.45407619  0.34419283  0.12259103    -0.21500
C698        C  0.48801097  0.32267773  0.10372790    -0.09600
C699        C  0.50540635  0.28881130  0.12381755     0.29300
C700        C  0.48707297  0.27487188  0.16087977    -0.21500
C701        C  0.45064938  0.29399573  0.17792375    -0.09600
C702        C  0.43541027  0.33005245  0.15942947     0.29300
F703        F  0.40145492  0.35051337  0.17576396    -0.20100
H704        H  0.44054860  0.37054758  0.10737701     0.17700
H705        H  0.49958540  0.24704331  0.17429959     0.17700
F706        F  0.53858731  0.26780701  0.10634075    -0.20100
C707        C  0.38230505  0.08122280  0.36934571    -0.21500
C708        C  0.40784195  0.11664429  0.36751048    -0.09600
C709        C  0.44798964  0.11493394  0.38484845     0.29300
C710        C  0.46248913  0.07800723  0.40208685    -0.21500
C711        C  0.43776245  0.04160581  0.40154246    -0.09600
C712        C  0.39708841  0.04401727  0.38543326     0.29300
F713        F  0.37170427  0.01013266  0.38396547    -0.20100
H714        H  0.35164882  0.08137195  0.35556343     0.17700
H715        H  0.49381136  0.07747585  0.41429819     0.17700
F716        F  0.47372795  0.14852688  0.38389685    -0.20100
C717        C  0.98570744  0.24643825  0.36100070    -0.21500
C718        C  0.94922736  0.27071518  0.36131374    -0.09600
C719        C  0.95013757  0.31069260  0.38242127     0.29300
C720        C  0.98696349  0.32658275  0.40048386    -0.21500
C721        C  0.02427654  0.30352605  0.39766278    -0.09600
C722        C  0.02282032  0.26253720  0.37863163     0.29300
F723        F  0.05745816  0.23823073  0.37586881    -0.20100
H724        H  0.98624758  0.21589191  0.34473443     0.17700
H725        H  0.98653583  0.35792654  0.41514833     0.17700
F726        F  0.91563274  0.33523770  0.38438079    -0.20100
C727        C  0.21972400  0.24401209  0.37453060    -0.21500
C728        C  0.24440128  0.26599314  0.34613204    -0.09600
C729        C  0.23704217  0.30933077  0.34351863     0.29300
C730        C  0.20485880  0.32956707  0.36745415    -0.21500
C731        C  0.17804860  0.30676404  0.39315629    -0.09600
C732        C  0.18645572  0.26379022  0.39701044     0.29300
F733        F  0.16111631  0.24034428  0.42093344    -0.20100
H734        H  0.22387546  0.21056465  0.37653932     0.17700
H735        H  0.19887993  0.36244865  0.36331751     0.17700
F736        F  0.25934869  0.33158171  0.31572771    -0.20100
C737        C  0.51627295  0.78033950  0.75376574    -0.21500
C738        C  0.51838805  0.78063568  0.79831036    -0.09600
C739        C  0.50232682  0.74626388  0.81882046     0.29300
C740        C  0.48423459  0.71297125  0.79540903    -0.21500
C741        C  0.47887942  0.71398310  0.75134787    -0.09600
C742        C  0.49676271  0.74760047  0.73046786     0.29300
F743        F  0.49517641  0.74914920  0.68766559    -0.20100
H744        H  0.53158243  0.80473860  0.73681632     0.17700
H745        H  0.47323431  0.68674406  0.81219157     0.17700
F746        F  0.50733844  0.74314386  0.86117385    -0.20100
C747        C  0.66681487  0.76578799  0.76839465    -0.21500
C748        C  0.65967049  0.77143686  0.81222470    -0.09600
C749        C  0.67143194  0.73977698  0.83872808     0.29300
C750        C  0.69247054  0.70438231  0.82188443    -0.21500
C751        C  0.70089121  0.69944332  0.77810865    -0.09600
C752        C  0.68523545  0.72932107  0.75126456     0.29300
F753        F  0.68946165  0.72443717  0.70852751    -0.20100
H754        H  0.65504617  0.78840740  0.74701365     0.17700
H755        H  0.70335239  0.68124251  0.84305825     0.17700
F756        F  0.65952229  0.74165790  0.88009189    -0.20100
C757        C  0.22595259  0.37944239  0.75784479    -0.21500
C758        C  0.22108969  0.38718703  0.80198936    -0.09600
C759        C  0.24939955  0.36954714  0.82912870     0.29300
C760        C  0.28073622  0.34341854  0.81277368    -0.21500
C761        C  0.28300695  0.33138758  0.76911529    -0.09600
C762        C  0.25559173  0.35033228  0.74149025     0.29300
F763        F  0.25676011  0.34012275  0.69929368    -0.20100
H764        H  0.20573350  0.39483209  0.73622607     0.17700
H765        H  0.30159552  0.33031961  0.83532359     0.17700
F766        F  0.24777437  0.37874993  0.87154441    -0.20100
C767        C  0.23735855  0.59639419  0.83788284    -0.21500
C768        C  0.25318652  0.60132129  0.79666596    -0.09600
C769        C  0.24101943  0.57310835  0.76376565     0.29300
C770        C  0.21515647  0.53939395  0.77266589    -0.21500
C771        C  0.20044744  0.53391805  0.81426314    -0.09600
C772        C  0.21085151  0.56353261  0.84656852     0.29300
F773        F  0.19783861  0.55932552  0.88716090    -0.20100
H774        H  0.24505293  0.61854643  0.86367486     0.17700
H775        H  0.20760126  0.51675203  0.74726551     0.17700
F776        F  0.25450269  0.57774098  0.72343223    -0.20100
C777        C  0.73880389  0.09202216  0.83431769    -0.21500
C778        C  0.74118080  0.11103084  0.79500559    -0.09600
C779        C  0.71061197  0.10178797  0.76469977     0.29300
C780        C  0.67679999  0.07658004  0.77501496    -0.21500
C781        C  0.67310391  0.05990914  0.81550925    -0.09600
C782        C  0.70542078  0.06646736  0.84441179     0.29300
F783        F  0.70342144  0.05090320  0.88356642    -0.20100
H784        H  0.76289166  0.09718947  0.85770455     0.17700
H785        H  0.65237241  0.07169532  0.75194158     0.17700
F786        F  0.71244062  0.11838632  0.72600359    -0.20100
C787        C  0.53000288  0.08774264  0.76500528    -0.21500
C788        C  0.52729597  0.08211492  0.80900708    -0.09600
C789        C  0.50104704  0.10881248  0.83368914     0.29300
C790        C  0.47783100  0.13994276  0.81453210    -0.21500
C791        C  0.47991271  0.14481899  0.77031959    -0.09600
C792        C  0.50651698  0.11831672  0.74584951     0.29300
F793        F  0.50957199  0.12173723  0.70327248    -0.20100
H794        H  0.55099194  0.06849991  0.74528459     0.17700
H795        H  0.45697631  0.15922900  0.83422802     0.17700
F796        F  0.49903854  0.10592745  0.87636680    -0.20100
C797        C  0.93317133  0.56932477  0.87271492    -0.21500
C798        C  0.93215805  0.53712843  0.84105613    -0.09600
C799        C  0.92191767  0.54576162  0.79938410     0.29300
C800        C  0.91272040  0.58635938  0.78954106    -0.21500
C801        C  0.91328383  0.61870557  0.82113703    -0.09600
C802        C  0.92343100  0.61002123  0.86300615     0.29300
F803        F  0.92443119  0.64064297  0.89435699    -0.20100
H804        H  0.94083174  0.56282011  0.90505804     0.17700
H805        H  0.90493439  0.59238117  0.75711409     0.17700
F806        F  0.92162640  0.51516079  0.76800090    -0.20100
C807        C  0.86562939  0.37754051  0.84018776    -0.21500
C808        C  0.90168972  0.39120096  0.81990638    -0.09600
C809        C  0.90430778  0.38679656  0.77540745     0.29300
C810        C  0.87307376  0.36598942  0.75212290    -0.21500
C811        C  0.83795970  0.34992781  0.77261440    -0.09600
C812        C  0.83373903  0.35798985  0.81674087     0.29300
F813        F  0.79844553  0.34724180  0.83711770    -0.20100
H814        H  0.86118179  0.38402353  0.87392908     0.17700
H815        H  0.87728349  0.36101005  0.71819766     0.17700
F816        F  0.93676271  0.40366510  0.75438437    -0.20100
C817        C  0.94563096  0.32390261  0.13054585    -0.21500
C818        C  0.91847593  0.34727086  0.10660008    -0.09600
C819        C  0.87644857  0.33557662  0.10391566     0.29300
C820        C  0.86110776  0.30359068  0.12834932    -0.21500
C821        C  0.88717463  0.28427731  0.15700793    -0.09600
C822        C  0.93005891  0.29301873  0.15618817     0.29300
F823        F  0.95610182  0.27494913  0.18348341    -0.20100
H824        H  0.97802644  0.33281187  0.13323110     0.17700
H825        H  0.82796136  0.29763208  0.12865278     0.17700
F826        F  0.84958717  0.35778972  0.08089579    -0.20100
C827        C  0.86680764  0.48808035  0.15641799    -0.21500
C828        C  0.90224990  0.49742453  0.13147776    -0.09600
C829        C  0.91574857  0.53933395  0.13241679     0.29300
C830        C  0.89484012  0.57024644  0.15791451    -0.21500
C831        C  0.85943344  0.56069576  0.18231749    -0.09600
C832        C  0.84599885  0.51905755  0.18171005     0.29300
F833        F  0.81305171  0.50818787  0.20597030    -0.20100
H834        H  0.85530477  0.45631951  0.15716712     0.17700
H835        H  0.90730499  0.60172971  0.15975317     0.17700
F836        F  0.94976606  0.55042148  0.10985293    -0.20100
C837        C  0.65834841  0.73435995  0.14398931    -0.21500
C838        C  0.65669954  0.77521764  0.12819435    -0.09600
C839        C  0.69054842  0.80175745  0.13734239     0.29300
C840        C  0.72359832  0.78868986  0.16249869    -0.21500
C841        C  0.72559195  0.74804086  0.17845710    -0.09600
C842        C  0.69261941  0.72058698  0.16790765     0.29300
F843        F  0.69298708  0.68091188  0.18123201    -0.20100
H844        H  0.63296889  0.71281141  0.13761707     0.17700
H845        H  0.74859792  0.81071026  0.16884926     0.17700
F846        F  0.69114367  0.84122259  0.12341183    -0.20100
C847        C  0.45959147  0.78562618  0.18456744    -0.21500
C848        C  0.43766224  0.74917048  0.17137146    -0.09600
C849        C  0.44744311  0.73017481  0.13120797     0.29300
C850        C  0.48109581  0.74507279  0.10719212    -0.21500
C851        C  0.50468520  0.77955280  0.12250373    -0.09600
C852        C  0.49274901  0.80039997  0.16073079     0.29300
F853        F  0.51503252  0.83358859  0.17649195    -0.20100
H854        H  0.45278526  0.80147762  0.21496097     0.17700
H855        H  0.48986886  0.72858765  0.07765741     0.17700
F856        F  0.42645413  0.69578120  0.11643649    -0.20100
C857        C  0.88297435  0.77784772  0.43713764    -0.21500
C858        C  0.92146868  0.75911655  0.44480692    -0.09600
C859        C  0.92527879  0.71542646  0.43670627     0.29300
C860        C  0.89246635  0.69175140  0.41959100    -0.21500
C861        C  0.85531818  0.71091620  0.40821496    -0.09600
C862        C  0.85012840  0.75402354  0.41940766     0.29300
F863        F  0.81320600  0.77311921  0.41326540    -0.20100
H864        H  0.87765364  0.81041852  0.44678688     0.17700
H865        H  0.89709939  0.65853914  0.41310279     0.17700
F866        F  0.96058864  0.69519155  0.44714256    -0.20100
C867        C  0.96902492  0.71125932  0.58488704    -0.21500
C868        C  0.96168844  0.75467588  0.58440571    -0.09600
C869        C  0.92797681  0.77223277  0.60744159     0.29300
C870        C  0.90039090  0.74642155  0.62789698    -0.21500
C871        C  0.90653949  0.70297335  0.62656896    -0.09600
C872        C  0.94170329  0.68546742  0.60621225     0.29300
F873        F  0.94904912  0.64365683  0.60636866    -0.20100
H874        H  0.99395876  0.69703737  0.56582477     0.17700
H875        H  0.87426308  0.76044922  0.64534712     0.17700
F876        F  0.91885482  0.81360176  0.60574803    -0.20100
C877        C  0.89779570  0.13664114  0.54710175    -0.21500
C878        C  0.89305255  0.09299349  0.54420270    -0.09600
C879        C  0.85985397  0.07496660  0.56601341     0.29300
C880        C  0.83370278  0.10034156  0.59248033    -0.21500
C881        C  0.84098242  0.14355749  0.59850014    -0.09600
C882        C  0.87237770  0.16170445  0.57406515     0.29300
F883        F  0.88079466  0.20326805  0.57862547    -0.20100
H884        H  0.92219509  0.15131192  0.52918103     0.17700
H885        H  0.80861476  0.08632597  0.60967217     0.17700
F886        F  0.85269697  0.03315605  0.56162655    -0.20100
C887        C  0.96516410  0.09778782  0.37971381    -0.21500
C888        C  0.93936991  0.06845890  0.39829361    -0.09600
C889        C  0.91028188  0.04609848  0.37386518     0.29300
C890        C  0.90342508  0.05655921  0.33236840    -0.21500
C891        C  0.92455992  0.09065981  0.31545320    -0.09600
C892        C  0.95800572  0.10877487  0.33813767     0.29300
F893        F  0.98152465  0.13916176  0.32145797    -0.20100
H894        H  0.98928860  0.11359369  0.39803990     0.17700
H895        H  0.87810836  0.04112548  0.31552611     0.17700
F896        F  0.88623982  0.01656908  0.39136996    -0.20100
C897        C  0.23342617  0.75782760  0.62669439    -0.21500
C898        C  0.25925009  0.72373949  0.61418030    -0.09600
C899        C  0.26244400  0.71197231  0.57088571     0.29300
C900        C  0.24137425  0.73489428  0.54088610    -0.21500
C901        C  0.21700098  0.77035317  0.55333957    -0.09600
C902        C  0.21218203  0.78057214  0.59694612     0.29300
F903        F  0.18925348  0.81421066  0.61101369    -0.20100
H904        H  0.23200800  0.76902973  0.65957404     0.17700
H905        H  0.24540321  0.72562022  0.50765812     0.17700
F906        F  0.28685908  0.67918088  0.55750606    -0.20100
C907        C  0.20179485  0.76941221  0.34025279    -0.21500
C908        C  0.22769891  0.79663500  0.31830491    -0.09600
C909        C  0.24114161  0.83394093  0.33907352     0.29300
C910        C  0.23300801  0.84117268  0.38242590    -0.21500
C911        C  0.21170977  0.81105613  0.40513846    -0.09600
C912        C  0.19418336  0.77635732  0.38343613     0.29300
F913        F  0.17007696  0.74898659  0.40416187    -0.20100
H914        H  0.19026549  0.74071284  0.32495376     0.17700
H915        H  0.24417558  0.86963966  0.39849880     0.17700
F916        F  0.26301315  0.86252714  0.31767423    -0.20100
loop_ 
_geom_bond_atom_site_label_1 
_geom_bond_atom_site_label_2 
_geom_bond_distance 
_geom_bond_site_symmetry_2 
_ccdc_geom_bond_type 
C1            N2   1.375       .  A
C1            N6   1.365       .  A
C1          C901   1.497       .  S
N2            C3   1.366       .  A
C3            N4   1.348       .  A
C3          C365   1.468       .  S
N4            C5   1.338       .  A
C5            N6   1.356       .  A
C5          C911   1.458       .  S
C7            N8   1.376       .  A
C7           N12   1.358       .  A
C7          C878   1.477       .  S
N8            C9   1.370       .  A
C9           N10   1.351       .  A
C9          C366   1.473   1_645  S
N10          C11   1.337       .  A
C11          N12   1.349       .  A
C11         C888   1.451       .  S
C13          N14   1.357       .  A
C13          N18   1.335       .  A
C13         C868   1.447       .  S
N14          C15   1.365       .  A
C15          N16   1.382       .  A
C15         C363   1.492   1_655  S
N16          C17   1.373       .  A
C17          N18   1.335       .  A
C17         C858   1.479       .  S
C19          N20   1.381       .  A
C19          N24   1.360       .  A
C19         C838   1.522       .  S
N20          C21   1.381       .  A
C21          N22   1.364       .  A
C21         C378   1.515       .  S
N22          C23   1.362       .  A
C23          N24   1.360       .  A
C23         C851   1.481       .  S
C25          N26   1.376       .  A
C25          N30   1.355       .  A
C25         C828   1.509       .  S
N26          C27   1.377       .  A
C27          N28   1.361       .  A
C27         C392   1.494   1_655  S
N28          C29   1.354       .  A
C29          N30   1.351       .  A
C29         C818   1.469       .  S
C31          N32   1.342       .  A
C31          N36   1.344       .  A
C31         C798   1.448       .  S
N32          C33   1.346       .  A
C33          N34   1.374       .  A
C33         C808   1.468       .  S
N34          C35   1.373       .  A
C35          N36   1.352       .  A
C35         C393   1.474   1_655  S
C37          N38   1.362       .  A
C37          N42   1.341       .  A
C37         C781   1.478       .  S
N38          C39   1.369       .  A
C39          N40   1.379       .  A
C39         C377   1.506   1_545  S
N40          C41   1.377       .  A
C41          N42   1.344       .  A
C41         C788   1.486       .  S
C43          N44   1.347       .  A
C43          N48   1.363       .  A
C43         C771   1.472       .  S
N44          C45   1.345       .  A
C45          N46   1.369       .  A
C45         C758   1.469       .  S
N46          C47   1.368       .  A
C47          N48   1.363       .  A
C47         C391   1.491       .  S
C49          N50   1.335       .  A
C49          N54   1.361       .  A
C49         C748   1.454       .  S
N50          C51   1.333       .  A
C51          N52   1.367       .  A
C51         C738   1.465       .  S
N52          C53   1.375       .  A
C53          N54   1.368       .  A
C53         C379   1.487       .  S
C55          N56   1.362       .  A
C55          N60   1.365       .  A
C55         C721   1.505       .  S
N56          C57   1.363       .  A
C57          N58   1.372       .  A
C57         C731   1.502       .  S
N58          C59   1.373       .  A
C59          N60   1.365       .  A
C59         C422   1.503       .  S
O61         Ni67   1.921       .  S
O61          C82   1.269       .  A
O62         Ni85   1.916       .  S
O62          C71   1.272       .  A
O63         Ni67   1.929       .  S
O63         Ni85   1.922       .  S
O63         Ni79   1.926       .  S
O63          H86   0.966       .  S
C64         C671   1.489       .  S
C64          O81   1.267       .  A
C64          O73   1.276       .  A
O65         Ni84   1.929       .  S
O65          C71   1.272       .  A
O66         Ni84   1.902       .  S
O66          C68   1.267       .  A
Ni67         O70   1.932       .  S
Ni67         O72   1.899       .  S
C68         C728   1.498       .  S
C68          O78   1.288       .  A
O69         Ni85   1.909       .  S
O69          C75   1.267       .  A
O70          C75   1.271       .  A
C71         C688   1.490       .  S
O72          C74   1.268       .  A
O73         Ni84   1.949       .  S
C74         C678   1.497       .  S
C74          O80   1.288       .  A
C75         C701   1.484       .  S
H76          O77   0.964       .  S
O77         Ni85   1.923       .  S
O77         Ni79   1.914       .  S
O77         Ni84   1.925       .  S
O78         Ni79   1.991       .  S
Ni79         O83   1.915       .  S
Ni79         O81   1.905       .  S
O80         Ni85   1.989       .  S
C82         C708   1.488       .  S
C82          O83   1.271       .  A
C87          N88   1.365       .  A
C87          N92   1.362       .  A
C87         C661   1.505       .  S
N88          C89   1.365       .  A
C89          N90   1.363   1_565  A
C89         C436   1.489       .  S
N90          C91   1.364       .  A
C91          N92   1.364   1_545  A
C91         C711   1.499       .  S
O93         Ni99   1.920       .  S
O93         C114   1.270       .  A
O94        Ni117   1.936       .  S
O94         C103   1.278       .  A
O95         Ni99   1.920       .  S
O95        Ni117   1.921       .  S
O95        Ni111   1.916       .  S
O95         H118   0.966       .  S
C96         C638   1.472       .  S
C96         O113   1.261       .  A
C96         O105   1.269       .  A
O97        Ni116   1.919       .  S
O97         C103   1.271       .  A
O98        Ni116   1.892       .  S
O98         C100   1.272       .  A
Ni99        O102   1.926       .  S
Ni99        O104   1.894       .  S
C100        C848   1.496       .  S
C100        O110   1.290       .  A
O101       Ni117   1.899       .  S
O101        C107   1.262       .  A
O102        C107   1.268       .  A
C103        C658   1.502       .  S
O104        C106   1.273       .  A
O105       Ni116   1.927       .  S
C106        C651   1.493       .  S
C106        O112   1.290       .  A
C107        C908   1.471       .  S
H108        O109   0.966       .  S
O109       Ni117   1.913       .  S
O109       Ni111   1.915       .  S
O109       Ni116   1.914       .  S
O110       Ni111   1.989       .  S
Ni111       O115   1.933       .  S
Ni111       O113   1.892       .  S
O112       Ni117   1.985       .  S
C114        C628   1.503       .  S
C114        O115   1.276       .  A
O119       Ni125   1.919       .  S
O119        C140   1.269       .  A
O120       Ni143   1.940       .  S
O120        C129   1.277       .  A
O121       Ni125   1.915       .  S
O121       Ni143   1.925       .  S
O121       Ni137   1.921       .  S
O121        H144   0.966       .  S
C122        C891   1.476       .  S
C122        O139   1.266       .  A
C122        O131   1.268       .  A
O123       Ni142   1.914       .  S
O123        C129   1.267       .  A
O124       Ni142   1.902       .  S
O124        C126   1.272       .  A
Ni125       O128   1.921       .  S
Ni125       O130   1.903       .  S
C126        C621   1.479       .  S
C126        O136   1.285       .  A
O127       Ni143   1.905       .  S
O127        C133   1.267       .  A
O128        C133   1.268       .  A
C129        C598   1.495       .  S
O130        C132   1.273       .  A
O131       Ni142   1.915       .  S
C132        C821   1.475       .  S
C132        O138   1.284       .  A
C133        C611   1.479       .  S
H134        O135   0.969       .  S
O135       Ni143   1.919       .  S
O135       Ni137   1.926       .  S
O135       Ni142   1.914       .  S
O136       Ni137   1.966       .  S
Ni137       O141   1.940       .  S
Ni137       O139   1.905       .  S
O138       Ni143   1.964       .  S
C140        C718   1.500       .  S
C140        O141   1.276       .  A
C145        N146   1.374       .  A
C145        N150   1.356       .  A
C145        C588   1.504       .  S
N146        C147   1.374       .  A
C147        N148   1.363   1_565  A
C147        C434   1.492       .  S
N148        C149   1.356       .  A
C149        N150   1.352   1_545  A
C149        C618   1.473       .  S
O151       Ni157   1.949       .  S
O151        C172   1.278       .  A
O152       Ni175   1.902       .  S
O152        C161   1.270       .  A
O153       Ni157   1.933       .  S
O153       Ni175   1.911       .  S
O153       Ni169   1.906       .  S
O153        H176   0.966       .  S
C154        C568   1.491       .  S
C154        O171   1.254       .  A
C154        O163   1.279       .  A
O155       Ni174   1.945       .  S
O155        C161   1.277       .  A
O156       Ni174   1.893       .  S
O156        C158   1.264       .  A
Ni157       O160   1.980       .  S
Ni157       O162   1.889       .  S
C158        C841   1.524       .  S
C158        O168   1.299       .  A
O159       Ni175   1.883       .  S
O159        C165   1.253       .  A
O160        C165   1.281       .  A
C161        C591   1.484       .  S
O162        C164   1.262       .  A
O163       Ni174   1.976       .  S
C164        C578   1.522       .  S
C164        O170   1.299       .  A
C165        C861   1.494       .  S
H166        O167   0.967       .  S
O167       Ni175   1.902       .  S
O167       Ni169   1.906       .  S
O167       Ni174   1.935       .  S
O168       Ni169   2.040       .  S
Ni169       O173   1.905       .  S
Ni169       O171   1.882       .  S
O170       Ni175   2.040       .  S
C172        C831   1.492       .  S
C172        O173   1.271       .  A
C177        N178   1.359       .  A
C177        N182   1.377       .  A
C177        C581   1.517       .  S
N178        C179   1.360       .  A
C179        N180   1.360       .  A
C179        C648   1.476       .  S
N180        C181   1.363       .  A
C181        N182   1.378       .  A
C181        C420   1.506       .  S
C183        N184   1.377       .  A
C183        N188   1.357   1_556  A
C183        C558   1.502       .  S
N184        C185   1.375   1_556  A
C185        N186   1.360       .  A
C185        C406   1.493       .  S
N186        C187   1.351       .  A
C187        N188   1.352       .  A
C187        C698   1.467       .  S
O189       Ni195   1.928       .  S
O189        C210   1.267       .  A
O190       Ni213   1.926       .  S
O190        C199   1.270       .  A
O191       Ni195   1.920       .  S
O191       Ni213   1.955       .  S
O191       Ni207   1.911       .  S
O191        H214   0.957       .  S
C192        C791   1.489       .  S
C192        O209   1.263       .  A
C192        O201   1.275       .  A
O193       Ni212   1.923       .  S
O193        C199   1.269       .  A
O194       Ni212   1.893       .  S
O194        C196   1.250       .  A
Ni195       O198   1.970       .  S
Ni195       O200   1.889       .  S
C196        C548   1.492       .  S
C196        O206   1.278       .  A
O197       Ni213   1.897       .  S
O197        C203   1.268       .  A
O198        C203   1.280       .  A
C199        C531   1.501       .  S
O200        C202   1.244       .  A
O201       Ni212   1.964       .  S
C202        C761   1.489       .  S
C202        O208   1.273       .  A
C203        C541   1.490       .  S
H204        O205   0.968       .  S
O205       Ni213   1.933       .  S
O205       Ni207   1.965       .  S
O205       Ni212   1.919       .  S
O206       Ni207   1.994       .  S
Ni207       O211   1.921       .  S
Ni207       O209   1.895       .  S
O208       Ni213   1.992       .  S
C210        C561   1.490       .  S
C210        O211   1.269       .  A
C215        N216   1.349       .  A
C215        N220   1.364       .  A
C215        C518   1.471       .  S
N216        C217   1.347       .  A
C217        N218   1.367       .  A
C217        C551   1.472   1_565  S
N218        C219   1.365       .  A
C219        N220   1.363       .  A
C219        C433   1.489       .  S
O221       Ni227   1.941       .  S
O221        C242   1.275       .  A
O222       Ni245   1.901       .  S
O222        C231   1.268       .  A
O223       Ni227   1.928       .  S
O223       Ni245   1.905       .  S
O223       Ni239   1.902       .  S
O223        H246   0.968       .  S
C224        C508   1.493       .  S
C224        O241   1.259       .  A
C224        O233   1.275       .  A
O225       Ni244   1.939       .  S
O225        C231   1.275       .  A
O226       Ni244   1.884       .  S
O226        C228   1.267       .  A
Ni227       O230   1.965       .  S
Ni227       O232   1.887       .  S
C228        C768   1.473       .  S
C228        O238   1.285       .  A
O229       Ni245   1.891       .  S
O229        C235   1.260       .  A
O230        C235   1.275       .  A
C231        C501   1.485       .  S
O232        C234   1.266       .  A
O233       Ni244   1.964       .  S
C234        C521   1.474       .  S
C234        O240   1.285       .  A
C235        C741   1.495       .  S
H236        O237   0.968       .  S
O237       Ni245   1.902       .  S
O237       Ni239   1.902       .  S
O237       Ni244   1.927       .  S
O238       Ni239   1.975       .  S
Ni239       O243   1.899       .  S
Ni239       O241   1.891       .  S
O240       Ni245   1.975       .  S
C242        C898   1.487       .  S
C242        O243   1.267       .  A
C247        N248   1.330       .  A
C247        N252   1.368       .  A
C247        C491   1.465       .  S
N248        C249   1.330       .  A
C249        N250   1.368       .  A
C249        C511   1.467       .  S
N250        C251   1.378       .  A
C251        N252   1.377       .  A
C251        C421   1.503       .  S
C253        N254   1.340       .  A
C253        N258   1.359       .  A
C253        C481   1.469       .  S
N254        C255   1.343       .  A
C255        N256   1.374       .  A
C255        C538   1.475       .  S
N256        C257   1.376       .  A
C257        N258   1.367       .  A
C257        C419   1.496       .  S
O259       Ni265   1.958       .  S
O259        C280   1.278       .  A
O260       Ni283   1.898       .  S
O260        C269   1.267       .  A
O261       Ni265   1.925       .  S
O261       Ni283   1.902       .  S
O261       Ni277   1.890       .  S
O261        H284   0.967       .  S
C262        C811   1.491       .  S
C262        O279   1.254       .  A
C262        O271   1.277       .  A
O263       Ni282   1.941       .  S
O263        C269   1.277       .  A
O264       Ni282   1.880       .  S
O264        C266   1.262       .  A
Ni265       O268   1.972       .  S
Ni265       O270   1.883       .  S
C266        C478   1.477       .  S
C266        O276   1.284       .  A
O267       Ni283   1.885       .  S
O267        C273   1.258       .  A
O268        C273   1.281       .  A
C269        C881   1.485       .  S
O270        C272   1.265       .  A
O271       Ni282   1.973       .  S
C272        C778   1.478       .  S
C272        O278   1.282       .  A
C273        C471   1.490       .  S
H274        O275   0.966       .  S
O275       Ni283   1.904       .  S
O275       Ni277   1.903       .  S
O275       Ni282   1.929       .  S
O276       Ni277   1.976       .  S
Ni277       O281   1.889       .  S
Ni277       O279   1.884       .  S
O278       Ni283   1.970       .  S
C280        C461   1.480       .  S
C280        O281   1.263       .  A
C285        N286   1.341       .  A
C285        N290   1.347       .  A
C285        C448   1.460       .  S
N286        C287   1.343       .  A
C287        N288   1.374       .  A
C287        C468   1.472   1_565  S
N288        C289   1.376       .  A
C289        N290   1.356       .  A
C289        C435   1.477       .  S
O291       Ni297   1.954       .  S
O291        C312   1.277       .  A
O292       Ni315   1.866       .  S
O292        C301   1.249       .  A
O293       Ni297   1.945       .  S
O293       Ni315   1.882       .  S
O293       Ni309   1.888       .  S
O293        H316   0.966       .  S
C294        C751   1.472       .  S
C294        O311   1.257       .  A
C294        O303   1.280       .  A
O295       Ni314   1.948       .  S
O295        C301   1.275       .  A
O296       Ni314   1.890       .  S
O296        C298   1.264       .  A
Ni297       O300   1.975       .  S
Ni297       O302   1.875       .  S
C298        C451   1.455       .  S
C298        O308   1.267       .  A
O299       Ni315   1.878       .  S
O299        C305   1.252       .  A
O300        C305   1.280       .  A
C301        C871   1.447       .  S
O302        C304   1.260       .  A
O303       Ni314   1.959       .  S
C304        C801   1.454       .  S
C304        O310   1.270       .  A
C305        C488   1.480       .  S
H306        O307   0.966       .  S
O307       Ni315   1.880       .  S
O307       Ni309   1.879       .  S
O307       Ni314   1.930       .  S
O308       Ni309   1.914       .  S
Ni309       O313   1.861       .  S
Ni309       O311   1.879       .  S
O310       Ni315   1.921       .  S
C312        C438   1.453       .  S
C312        O313   1.249       .  A
C317        N318   1.363   1_556  A
C317        N322   1.378       .  A
C317        C498   1.496       .  S
N318        C319   1.353       .  A
C319        N320   1.337       .  A
C319        C641   1.454       .  S
N320        C321   1.349       .  A
C321        N322   1.368   1_554  A
C321        C407   1.475       .  S
C323        N324   1.373       .  A
C323        N328   1.361   1_556  A
C323        C458   1.489       .  S
N324        C325   1.365   1_556  A
C325        N326   1.354       .  A
C325        C408   1.475       .  S
N326        C327   1.344       .  A
C327        N328   1.355       .  A
C327        C608   1.460       .  S
C329        N330   1.360       .  A
C329        N334   1.331   1_556  A
C329        C441   1.447       .  S
N330        C331   1.370   1_556  A
C331        N332   1.377       .  A
C331        C405   1.484       .  S
N332        C333   1.366       .  A
C333        N334   1.331       .  A
C333        C571   1.464       .  S
C335        N336   1.363       .  A
C335        N340   1.365       .  A
C335        C601   1.506       .  S
N336        C337   1.361       .  A
C337        N338   1.366       .  A
C337        C681   1.494       .  S
N338        C339   1.370       .  A
C339        N340   1.365       .  A
C339        C380   1.495   1_545  S
C341        N342   1.362       .  A
C341        N346   1.364       .  A
C341        C631   1.501       .  S
N342        C343   1.361       .  A
C343        N344   1.361       .  A
C343        C394   1.483       .  S
N344        C345   1.364       .  A
C345        N346   1.366       .  A
C345        C691   1.498       .  S
C347        N348   1.378       .  A
C347        N352   1.359       .  A
C347        C528   1.503       .  S
N348        C349   1.378       .  A
C349        N350   1.364       .  A
C349        C364   1.499   1_545  S
N350        C351   1.354       .  A
C351        N352   1.351       .  A
C351        C668   1.475       .  S
O353       Ni361   1.925       .  S
O353        C363   1.279       .  A
O354       Ni361   1.920       .  S
O354        C364   1.283       .  A
O355       Ni361   1.878       .  S
O355        C365   1.277       .  A
O356       Ni361   1.875       .  S
O356        C366   1.276       .  A
O357       Ni362   1.955       .  S
O357        C366   1.285       .  A
O358       Ni362   1.948       .  S
O358        C365   1.284       .  A
O359       Ni362   1.961       .  S
O359        C364   1.288       .  A
O360       Ni362   1.950       .  S
O360        C363   1.290       .  A
Ni361      Ni362   2.384       .  S
O367       Ni375   1.932       .  S
O367        C377   1.284       .  A
O368       Ni375   1.944   1_554  S
O368        C378   1.283       .  A
O369       Ni375   1.939       .  S
O369        C379   1.287       .  A
O370       Ni375   1.945   1_554  S
O370        C380   1.288       .  A
O371       Ni376   1.930   1_554  S
O371        C380   1.282       .  A
O372       Ni376   1.925       .  S
O372        C379   1.280       .  A
O373       Ni376   1.965   1_554  S
O373        C378   1.293       .  A
O374       Ni376   1.963       .  S
O374        C377   1.289       .  A
Ni375      Ni376   2.380       .  S
O381       Ni389   1.939       .  S
O381        C391   1.284       .  A
O382       Ni389   1.934   1_554  S
O382        C392   1.287       .  A
O383       Ni389   1.937       .  S
O383        C393   1.281       .  A
O384       Ni389   1.939   1_554  S
O384        C394   1.285       .  A
O385       Ni390   1.919   1_554  S
O385        C394   1.281       .  A
O386       Ni390   1.902       .  S
O386        C393   1.282       .  A
O387       Ni390   1.939   1_554  S
O387        C392   1.282       .  A
O388       Ni390   1.932       .  S
O388        C391   1.284       .  A
Ni389      Ni390   2.385       .  S
O395       Ni403   1.941       .  S
O395        C405   1.287   1_556  A
O396       Ni403   1.953       .  S
O396        C406   1.286   1_556  A
O397       Ni403   1.957       .  S
O397        C407   1.286   1_556  A
O398       Ni403   1.958       .  S
O398        C408   1.288   1_556  A
O399       Ni404   1.879       .  S
O399        C408   1.275       .  A
O400       Ni404   1.878       .  S
O400        C407   1.276       .  A
O401       Ni404   1.919       .  S
O401        C406   1.283       .  A
O402       Ni404   1.921       .  S
O402        C405   1.280       .  A
Ni403      Ni404   2.385   1_556  S
O409       Ni417   1.955       .  S
O409        C419   1.287       .  A
O410       Ni417   1.958       .  S
O410        C420   1.292       .  A
O411       Ni417   1.939       .  S
O411        C421   1.284       .  A
O412       Ni417   1.941       .  S
O412        C422   1.283       .  A
O413       Ni418   1.949       .  S
O413        C422   1.289       .  A
O414       Ni418   1.951       .  S
O414        C421   1.288       .  A
O415       Ni418   1.936       .  S
O415        C420   1.281       .  A
O416       Ni418   1.923       .  S
O416        C419   1.283       .  A
Ni417      Ni418   2.380       .  S
O423       Ni431   1.935       .  S
O423        C433   1.285       .  A
O424       Ni431   1.942       .  S
O424        C434   1.284       .  A
O425       Ni431   1.908       .  S
O425        C435   1.283       .  A
O426       Ni431   1.927       .  S
O426        C436   1.282       .  A
O427       Ni432   1.942   1_565  S
O427        C436   1.286       .  A
O428       Ni432   1.939   1_565  S
O428        C435   1.282       .  A
O429       Ni432   1.928       .  S
O429        C434   1.285   1_545  A
O430       Ni432   1.933   1_565  S
O430        C433   1.284       .  A
Ni431      Ni432   2.385   1_565  S
C437        C438   1.404       .  A
C437        C442   1.394       .  A
C437        H444   1.084       .  S
C438        C439   1.397       .  A
C439        C440   1.396       .  A
C439        F446   1.357       .  S
C440        C441   1.406       .  A
C440        H445   1.084       .  S
C441        C442   1.403       .  A
C442        F443   1.358       .  S
C447        C448   1.404       .  A
C447        C452   1.383       .  A
C447        H454   1.084       .  S
C448        C449   1.404       .  A
C449        C450   1.391       .  A
C449        F456   1.357       .  S
C450        C451   1.402       .  A
C450        H455   1.083       .  S
C451        C452   1.402       .  A
C452        F453   1.358       .  S
C457        C458   1.415       .  A
C457        C462   1.409       .  A
C457        H464   1.083       .  S
C458        C459   1.403       .  A
C459        C460   1.398       .  A
C459        F466   1.357       .  S
C460        C461   1.404       .  A
C460        H465   1.084       .  S
C461        C462   1.402       .  A
C462        F463   1.357       .  S
C467        C468   1.400       .  A
C467        C472   1.406       .  A
C467        H474   1.082       .  S
C468        C469   1.407       .  A
C469        C470   1.397       .  A
C469        F476   1.358       .  S
C470        C471   1.404       .  A
C470        H475   1.082       .  S
C471        C472   1.412       .  A
C472        F473   1.357       .  S
C477        C478   1.400       .  A
C477        C482   1.397       .  A
C477        H484   1.083       .  S
C478        C479   1.417       .  A
C479        C480   1.393       .  A
C479        F486   1.358       .  S
C480        C481   1.395   1_655  A
C480        H485   1.084       .  S
C481        C482   1.411   1_455  A
C482        F483   1.358   1_655  S
C487        C488   1.403       .  A
C487        C492   1.396   1_655  A
C487        H494   1.083       .  S
C488        C489   1.408       .  A
C489        C490   1.402   1_655  A
C489        F496   1.356       .  S
C490        C491   1.402       .  A
C490        H495   1.083       .  S
C491        C492   1.412       .  A
C492        F493   1.359       .  S
C497        C498   1.402       .  A
C497        C502   1.399       .  A
C497        H504   1.083       .  S
C498        C499   1.419       .  A
C499        C500   1.405       .  A
C499        F506   1.358   1_556  S
C500        C501   1.401       .  A
C500        H505   1.083       .  S
C501        C502   1.411       .  A
C502        F503   1.356       .  S
C507        C508   1.406       .  A
C507        C512   1.399       .  A
C507        H514   1.075       .  S
C508        C509   1.406       .  A
C509        C510   1.400       .  A
C509        F516   1.357       .  S
C510        C511   1.412       .  A
C510        H515   1.084       .  S
C511        C512   1.401       .  A
C512        F513   1.358       .  S
C517        C518   1.396       .  A
C517        C522   1.389       .  A
C517        H524   1.083       .  S
C518        C519   1.412       .  A
C519        C520   1.400       .  A
C519        F526   1.357       .  S
C520        C521   1.401       .  A
C520        H525   1.083       .  S
C521        C522   1.414       .  A
C522        F523   1.358       .  S
C527        C528   1.410       .  A
C527        C532   1.401       .  A
C527        H534   1.083       .  S
C528        C529   1.409       .  A
C529        C530   1.416       .  A
C529        F536   1.357       .  S
C530        C531   1.414       .  A
C530        H535   1.083       .  S
C531        C532   1.408       .  A
C532        F533   1.358       .  S
C537        C538   1.409       .  A
C537        C542   1.401       .  A
C537        H544   1.084       .  S
C538        C539   1.401       .  A
C539        C540   1.403       .  A
C539        F546   1.357       .  S
C540        C541   1.413       .  A
C540        H545   1.080       .  S
C541        C542   1.406       .  A
C542        F543   1.357       .  S
C547        C548   1.414       .  A
C547        C552   1.386       .  A
C547        H554   1.083       .  S
C548        C549   1.406       .  A
C549        C550   1.409       .  A
C549        F556   1.357       .  S
C550        C551   1.413       .  A
C550        H555   1.083       .  S
C551        C552   1.395       .  A
C552        F553   1.358       .  S
C557        C558   1.403       .  A
C557        C562   1.406       .  A
C557        H564   1.083       .  S
C558        C559   1.421       .  A
C559        C560   1.408       .  A
C559        F566   1.357       .  S
C560        C561   1.399       .  A
C560        H565   1.083       .  S
C561        C562   1.412       .  A
C562        F563   1.358       .  S
C567        C568   1.401       .  A
C567        C572   1.397       .  A
C567        H574   1.081       .  S
C568        C569   1.412       .  A
C569        C570   1.402       .  A
C569        F576   1.351       .  S
C570        C571   1.400       .  A
C570        H575   1.084       .  S
C571        C572   1.410       .  A
C572        F573   1.358       .  S
C577        C578   1.408       .  A
C577        C582   1.423   1_655  A
C577        H584   1.082       .  S
C578        C579   1.423       .  A
C579        C580   1.407       .  A
C579        F586   1.358       .  S
C580        C581   1.400   1_655  A
C580        H585   1.083       .  S
C581        C582   1.423       .  A
C582        F583   1.357       .  S
C587        C588   1.405       .  A
C587        C592   1.405       .  A
C587        H594   1.083       .  S
C588        C589   1.422       .  A
C589        C590   1.405       .  A
C589        F596   1.355       .  S
C590        C591   1.397       .  A
C590        H595   1.083       .  S
C591        C592   1.410       .  A
C592        F593   1.358       .  S
C597        C598   1.408       .  A
C597        C602   1.407       .  A
C597        H604   1.083       .  S
C598        C599   1.407       .  A
C599        C600   1.406       .  A
C599        F606   1.355       .  S
C600        C601   1.411       .  A
C600        H605   1.083       .  S
C601        C602   1.413       .  A
C602        F603   1.357       .  S
C607        C608   1.397       .  A
C607        C612   1.392       .  A
C607        H614   1.084       .  S
C608        C609   1.401       .  A
C609        C610   1.397       .  A
C609        F616   1.357       .  S
C610        C611   1.411       .  A
C610        H615   1.083       .  S
C611        C612   1.407       .  A
C612        F613   1.351       .  S
C617        C618   1.404       .  A
C617        C622   1.400       .  A
C617        H624   1.084       .  S
C618        C619   1.403       .  A
C619        C620   1.399       .  A
C619        F626   1.357       .  S
C620        C621   1.407       .  A
C620        H625   1.083       .  S
C621        C622   1.406       .  A
C622        F623   1.356       .  S
C627        C628   1.406       .  A
C627        C632   1.407       .  A
C627        H634   1.076       .  S
C628        C629   1.414       .  A
C629        C630   1.404       .  A
C629        F636   1.358       .  S
C630        C631   1.408       .  A
C630        H635   1.083       .  S
C631        C632   1.411       .  A
C632        F633   1.357       .  S
C637        C638   1.408       .  A
C637        C642   1.391       .  A
C637        H644   1.083       .  S
C638        C639   1.406       .  A
C639        C640   1.397       .  A
C639        F646   1.356       .  S
C640        C641   1.400       .  A
C640        H645   1.083       .  S
C641        C642   1.399       .  A
C642        F643   1.358       .  S
C647        C648   1.406       .  A
C647        C652   1.409       .  A
C647        H654   1.083       .  S
C648        C649   1.399       .  A
C649        C650   1.394       .  A
C649        F656   1.358       .  S
C650        C651   1.411       .  A
C650        H655   1.083       .  S
C651        C652   1.411       .  A
C652        F653   1.357       .  S
C657        C658   1.410       .  A
C657        C662   1.404       .  A
C657        H664   1.083       .  S
C658        C659   1.408       .  A
C659        C660   1.409       .  A
C659        F666   1.352       .  S
C660        C661   1.411       .  A
C660        H665   1.083       .  S
C661        C662   1.410       .  A
C662        F663   1.357       .  S
C667        C668   1.403       .  A
C667        C672   1.404       .  A
C667        H674   1.083       .  S
C668        C669   1.402       .  A
C669        C670   1.400       .  A
C669        F676   1.357       .  S
C670        C671   1.408       .  A
C670        H675   1.083       .  S
C671        C672   1.411       .  A
C672        F673   1.357       .  S
C677        C678   1.411       .  A
C677        C682   1.407       .  A
C677        H684   1.083       .  S
C678        C679   1.410       .  A
C679        C680   1.410       .  A
C679        F686   1.357       .  S
C680        C681   1.408       .  A
C680        H685   1.083       .  S
C681        C682   1.406       .  A
C682        F683   1.357       .  S
C687        C688   1.405       .  A
C687        C692   1.405       .  A
C687        H694   1.082       .  S
C688        C689   1.409       .  A
C689        C690   1.403       .  A
C689        F696   1.358       .  S
C690        C691   1.409       .  A
C690        H695   1.083       .  S
C691        C692   1.412       .  A
C692        F693   1.357       .  S
C697        C698   1.401       .  A
C697        C702   1.399       .  A
C697        H704   1.084       .  S
C698        C699   1.401       .  A
C699        C700   1.398       .  A
C699        F706   1.358       .  S
C700        C701   1.410       .  A
C700        H705   1.083       .  S
C701        C702   1.408       .  A
C702        F703   1.356       .  S
C707        C708   1.403       .  A
C707        C712   1.401       .  A
C707        H714   1.082       .  S
C708        C709   1.410       .  A
C709        C710   1.406       .  A
C709        F716   1.358       .  S
C710        C711   1.410       .  A
C710        H715   1.083       .  S
C711        C712   1.412       .  A
C712        F713   1.357       .  S
C717        C718   1.406       .  A
C717        C722   1.409   1_655  A
C717        H724   1.081       .  S
C718        C719   1.412       .  A
C719        C720   1.405       .  A
C719        F726   1.358       .  S
C720        C721   1.407   1_655  A
C720        H725   1.083       .  S
C721        C722   1.415       .  A
C722        F723   1.357       .  S
C727        C728   1.406       .  A
C727        C732   1.410       .  A
C727        H734   1.083       .  S
C728        C729   1.412       .  A
C729        C730   1.413       .  A
C729        F736   1.357       .  S
C730        C731   1.407       .  A
C730        H735   1.083       .  S
C731        C732   1.411       .  A
C732        F733   1.357       .  S
C737        C738   1.409       .  A
C737        C742   1.402       .  A
C737        H744   1.084       .  S
C738        C739   1.400       .  A
C739        C740   1.397       .  A
C739        F746   1.358       .  S
C740        C741   1.406       .  A
C740        H745   1.073       .  S
C741        C742   1.409       .  A
C742        F743   1.357       .  S
C747        C748   1.404       .  A
C747        C752   1.390       .  A
C747        H754   1.084       .  S
C748        C749   1.400       .  A
C749        C750   1.397       .  A
C749        F756   1.356       .  S
C750        C751   1.408       .  A
C750        H755   1.082       .  S
C751        C752   1.405       .  A
C752        F753   1.357       .  S
C757        C758   1.411       .  A
C757        C762   1.408       .  A
C757        H764   1.083       .  S
C758        C759   1.395       .  A
C759        C760   1.387       .  A
C759        F766   1.358       .  S
C760        C761   1.414       .  A
C760        H765   1.083       .  S
C761        C762   1.405       .  A
C762        F763   1.357       .  S
C767        C768   1.409       .  A
C767        C772   1.390       .  A
C767        H774   1.083       .  S
C768        C769   1.401       .  A
C769        C770   1.400       .  A
C769        F776   1.357       .  S
C770        C771   1.411       .  A
C770        H775   1.083       .  S
C771        C772   1.401       .  A
C772        F773   1.358       .  S
C777        C778   1.411       .  A
C777        C782   1.394       .  A
C777        H784   1.083       .  S
C778        C779   1.401       .  A
C779        C780   1.400       .  A
C779        F786   1.357       .  S
C780        C781   1.414       .  A
C780        H785   1.083       .  S
C781        C782   1.400       .  A
C782        F783   1.357       .  S
C787        C788   1.412       .  A
C787        C792   1.400       .  A
C787        H794   1.084       .  S
C788        C789   1.403       .  A
C789        C790   1.408       .  A
C789        F796   1.357       .  S
C790        C791   1.414       .  A
C790        H795   1.081       .  S
C791        C792   1.402       .  A
C792        F793   1.357       .  S
C797        C798   1.400       .  A
C797        C802   1.388       .  A
C797        H804   1.084       .  S
C798        C799   1.401       .  A
C799        C800   1.382       .  A
C799        F806   1.358       .  S
C800        C801   1.401       .  A
C800        H805   1.084       .  S
C801        C802   1.407       .  A
C802        F803   1.358       .  S
C807        C808   1.400       .  A
C807        C812   1.401       .  A
C807        H814   1.084       .  S
C808        C809   1.407       .  A
C809        C810   1.400       .  A
C809        F816   1.358       .  S
C810        C811   1.406       .  A
C810        H815   1.083       .  S
C811        C812   1.410       .  A
C812        F813   1.352       .  S
C817        C818   1.401       .  A
C817        C822   1.398       .  A
C817        H824   1.084       .  S
C818        C819   1.405       .  A
C819        C820   1.399       .  A
C819        F826   1.357       .  S
C820        C821   1.405       .  A
C820        H825   1.083       .  S
C821        C822   1.408       .  A
C822        F823   1.357       .  S
C827        C828   1.420       .  A
C827        C832   1.406       .  A
C827        H834   1.082       .  S
C828        C829   1.408       .  A
C829        C830   1.409       .  A
C829        F836   1.357       .  S
C830        C831   1.411       .  A
C830        H835   1.083       .  S
C831        C832   1.399       .  A
C832        F833   1.357       .  S
C837        C838   1.422       .  A
C837        C842   1.424       .  A
C837        H844   1.083       .  S
C838        C839   1.405       .  A
C839        C840   1.409       .  A
C839        F846   1.357       .  S
C840        C841   1.419       .  A
C840        H845   1.083       .  S
C841        C842   1.409       .  A
C842        F843   1.356       .  S
C847        C848   1.410       .  A
C847        C852   1.396       .  A
C847        H854   1.083       .  S
C848        C849   1.411       .  A
C849        C850   1.412       .  A
C849        F856   1.356       .  S
C850        C851   1.408       .  A
C850        H855   1.083       .  S
C851        C852   1.400       .  A
C852        F853   1.358       .  S
C857        C858   1.403       .  A
C857        C862   1.408       .  A
C857        H864   1.083       .  S
C858        C859   1.412       .  A
C859        C860   1.397       .  A
C859        F866   1.358       .  S
C860        C861   1.400       .  A
C860        H865   1.081       .  S
C861        C862   1.415       .  A
C862        F863   1.355       .  S
C867        C868   1.409       .  A
C867        C872   1.397       .  A
C867        H874   1.084       .  S
C868        C869   1.401       .  A
C869        C870   1.389       .  A
C869        F876   1.358       .  S
C870        C871   1.401       .  A
C870        H875   1.084       .  S
C871        C872   1.398       .  A
C872        F873   1.357       .  S
C877        C878   1.402       .  A
C877        C882   1.397       .  A
C877        H884   1.084       .  S
C878        C879   1.405       .  A
C879        C880   1.407       .  A
C879        F886   1.357       .  S
C880        C881   1.406       .  A
C880        H885   1.078       .  S
C881        C882   1.408       .  A
C882        F883   1.357       .  S
C887        C888   1.399       .  A
C887        C892   1.398       .  A
C887        H894   1.083       .  S
C888        C889   1.394       .  A
C889        C890   1.389       .  A
C889        F896   1.356       .  S
C890        C891   1.410       .  A
C890        H895   1.083       .  S
C891        C892   1.408       .  A
C892        F893   1.356       .  S
C897        C898   1.408       .  A
C897        C902   1.400       .  A
C897        H904   1.082       .  S
C898        C899   1.403       .  A
C899        C900   1.406       .  A
C899        F906   1.357       .  S
C900        C901   1.415       .  A
C900        H905   1.083       .  S
C901        C902   1.407       .  A
C902        F903   1.357       .  S
C907        C908   1.408       .  A
C907        C912   1.390       .  A
C907        H914   1.083       .  S
C908        C909   1.403       .  A
C909        C910   1.399       .  A
C909        F916   1.357       .  S
C910        C911   1.404       .  A
C910        H915   1.083       .  S
C911        C912   1.397       .  A
C912        F913   1.358       .  S
