geometry optimzed in LAMMPS
_audit_creation_date              2020-11-30 
_audit_creation_method            'lammps2cif' 
_symmetry_space_group_name_H-M    'P1' 
_symmetry_Int_Tables_number       1 
_symmetry_cell_setting            triclinic 
loop_ 
_symmetry_equiv_pos_as_xyz 
  x,y,z 
_cell_length_a                    29.771823950475778 
_cell_length_b                    30.345268771094727 
_cell_length_c                    26.167300949973892 
_cell_angle_alpha                 89.5433654866742 
_cell_angle_beta                  87.82801291916226 
_cell_angle_gamma                 89.97896505754127 
loop_ 
_atom_site_label 
_atom_site_type_symbol 
_atom_site_fract_x 
_atom_site_fract_y 
_atom_site_fract_z 
_atom_site_charge 
O1          O  0.28697879  0.06282479  0.99806266    -0.71910
O2          O  0.28717926  0.93761677  0.50018063    -0.72130
O3          O  0.28711766  0.99979131  0.42655928    -0.71990
O4          O  0.28713592  0.00060599  0.07151298    -0.72000
O5          O  0.21405420  0.00050191  0.07468654    -0.71960
O6          O  0.21404091  0.99973867  0.42973518    -0.71980
O7          O  0.21416120  0.93754516  0.00328372    -0.71920
O8          O  0.21404480  0.06273882  0.50123248    -0.72110
V9          V  0.28569914  0.00021165  0.49911850     1.35240
V10         V  0.21551986  0.00013333  0.50216117     1.35170
C11         C  0.25046718  0.08420127  0.99943503     0.77330
C12         C  0.25072110  0.91616348  0.50217045     0.77380
C13         C  0.25057118  0.99962580  0.40355160     0.77250
C14         C  0.25060143  0.00060822  0.09767576     0.77210
O15         O  0.21415734  0.93735625  0.25201683    -0.71910
O16         O  0.21403215  0.06247334  0.25203208    -0.72130
O17         O  0.21406080  0.00038306  0.17965539    -0.71990
O18         O  0.21402519  0.99949106  0.32462711    -0.72000
O19         O  0.28710327  0.99953218  0.32150107    -0.71960
O20         O  0.28714384  0.00048237  0.17653191    -0.71980
O21         O  0.28701262  0.06253096  0.24904316    -0.71920
O22         O  0.28713680  0.93744960  0.24895585    -0.72110
V23         V  0.21548969  0.99992175  0.25205018     1.35240
V24         V  0.28567477  0.99999071  0.24907295     1.35170
C25         C  0.25067853  0.91601704  0.25030207     0.77330
C26         C  0.25050484  0.08388604  0.25049265     0.77380
C27         C  0.25060711  0.00054309  0.15351603     0.77250
C28         C  0.25056081  0.99948502  0.34766198     0.77210
C29         C  0.20952935  0.20265041  0.49918905     0.03000
C30         C  0.20970871  0.15643973  0.49961378    -0.13150
C31         C  0.25045040  0.13298764  0.49916274     0.00500
C32         C  0.29113356  0.15650564  0.49885261    -0.11680
C33         C  0.29119718  0.20270265  0.49968411     0.02990
C34         C  0.25033416  0.22571331  0.49952120    -0.11100
H35         H  0.17800265  0.13891969  0.49970178     0.08580
H36         H  0.32287878  0.13903153  0.49881259     0.06110
H37         H  0.25028637  0.26143588  0.49973946     0.05960
C38         C  0.20967277  0.20228354  0.24773188     0.03000
C39         C  0.20989925  0.15604742  0.24834700    -0.13150
C40         C  0.25047782  0.13261148  0.25033743     0.00500
C41         C  0.29104546  0.15603509  0.25211661    -0.11680
C42         C  0.29126292  0.20226773  0.25224196     0.02990
C43         C  0.25046546  0.22520496  0.24983132    -0.11100
H44         H  0.17833533  0.13843194  0.24685363     0.08580
H45         H  0.32261438  0.13840522  0.25381354     0.06110
H46         H  0.25045729  0.26091207  0.24962142     0.05960
C47         C  0.29166774  0.79775185  0.50219706     0.03000
C48         C  0.29149519  0.84394901  0.50227781    -0.13150
C49         C  0.25078634  0.86737204  0.50271472     0.00500
C50         C  0.21012666  0.84385400  0.50305845    -0.11680
C51         C  0.20990684  0.79760849  0.50044595     0.02990
C52         C  0.25091533  0.77476075  0.50059203    -0.11100
H53         H  0.32317722  0.86148680  0.50253307     0.08580
H54         H  0.17848942  0.86150227  0.50478833     0.06110
H55         H  0.25123554  0.73908255  0.49888825     0.05960
C56         C  0.29164180  0.79780057  0.25338749     0.03000
C57         C  0.29143550  0.84396076  0.25177541    -0.13150
C58         C  0.25078264  0.86728424  0.25011135     0.00500
C59         C  0.21025836  0.84373971  0.24829273    -0.11680
C60         C  0.21000894  0.79742405  0.24919555     0.02990
C61         C  0.25088163  0.77474240  0.25298660    -0.11100
H62         H  0.32306243  0.86156698  0.25239668     0.08580
H63         H  0.17878719  0.86140082  0.24581579     0.06110
H64         H  0.25113634  0.73906999  0.25510433     0.05960
C65         C  0.45934593  0.70202217  0.49777158     0.03000
C66         C  0.00010644  0.72499663  0.49938837    -0.13150
C67         C  0.04110754  0.70213357  0.49951289     0.00500
C68         C  0.04087247  0.65588863  0.49686981    -0.11680
C69         C  0.00020308  0.63238719  0.49718911     0.02990
C70         C  0.45950299  0.65582667  0.49764818    -0.11100
H71         H  0.99979891  0.76067404  0.50111420     0.08580
H72         H  0.07250285  0.63822861  0.49513202     0.06110
H73         H  0.42781362  0.63830272  0.49737950     0.05960
C74         C  0.45923565  0.70196018  0.24660574     0.03000
C75         C  0.45942928  0.65579945  0.24820374    -0.13150
C76         C  0.00007581  0.63246602  0.24986150     0.00500
C77         C  0.04060661  0.65600002  0.25168795    -0.11680
C78         C  0.04086897  0.70231518  0.25079789     0.03070
C79         C  0.00000182  0.72500788  0.24701327    -0.11100
H80         H  0.42779827  0.63820087  0.24757589     0.08580
H81         H  0.07207350  0.63833079  0.25416012     0.06110
H82         H  0.99975590  0.76068069  0.24490505     0.05960
C83         C  0.45946063  0.29709679  0.50056955     0.03000
C84         C  0.45957535  0.34329537  0.50129206    -0.13150
C85         C  0.00028587  0.36677131  0.50093381     0.00500
C86         C  0.04099962  0.34327646  0.50054978    -0.11680
C87         C  0.04112770  0.29706534  0.50108268     0.02990
C88         C  0.50029674  0.27404373  0.50080075    -0.11100
H89         H  0.42784997  0.36080149  0.50127614     0.08580
H90         H  0.07272512  0.36076508  0.50041870     0.06110
H91         H  0.50030382  0.23832045  0.50065020     0.05960
C92         C  0.45967296  0.29746307  0.24748986     0.03000
C93         C  0.00048442  0.27454687  0.24987679    -0.13150
C94         C  0.04126310  0.29748919  0.25199931     0.00500
C95         C  0.04101095  0.34372407  0.25141673    -0.11680
C96         C  0.00041885  0.36714032  0.24944753     0.02990
C97         C  0.45986473  0.34369691  0.24764770    -0.11100
H98         H  0.00051410  0.23883981  0.25006883     0.08580
H99         H  0.07256539  0.36135364  0.25292982     0.06110
H100        H  0.42828633  0.36131249  0.24597049     0.05960
O101        O  0.03668903  0.56220549  0.99659414    -0.71910
O102        O  0.03677163  0.43698389  0.49872249    -0.72130
O103        O  0.03678979  0.49920180  0.42522420    -0.71990
O104        O  0.03680253  0.50002715  0.07017178    -0.72000
O105        O  0.46372561  0.50003693  0.07334998    -0.71960
O106        O  0.46370817  0.49915936  0.42839360    -0.71980
O107        O  0.46375934  0.43698420  0.00190057    -0.71920
O108        O  0.46376248  0.56217199  0.49969358    -0.72110
V109        V  0.03532058  0.49960268  0.99774939     1.35240
V110        V  0.46514131  0.49958511  0.00079080     1.35170
C111        C  0.00019009  0.58360344  0.99770856     0.77330
C112        C  0.00024802  0.41557343  0.00057077     0.77380
C113        C  0.00024437  0.49911722  0.40223214     0.77250
C114        C  0.00027389  0.50017462  0.09635570     0.77210
O115        O  0.46385512  0.43721233  0.25081820    -0.71910
O116        O  0.46371350  0.56230029  0.25098580    -0.72130
O117        O  0.46374875  0.50024849  0.17840583    -0.71990
O118        O  0.46370893  0.49923489  0.32337174    -0.72000
O119        O  0.03679182  0.49934229  0.32025136    -0.71960
O120        O  0.03682699  0.50029718  0.17527605    -0.71980
O121        O  0.03669300  0.56239612  0.24792409    -0.71920
O122        O  0.03683559  0.43728696  0.24782913    -0.72110
V123        V  0.46518057  0.49975658  0.25083132     1.35240
V124        V  0.03536568  0.49983445  0.24785373     1.35170
C125        C  0.00036940  0.41586576  0.24934583     0.77330
C126        C  0.00017220  0.58373378  0.24964979     0.77380
C127        C  0.00028951  0.50030847  0.15224361     0.77250
C128        C  0.00024394  0.49917506  0.34638990     0.77210
C129        C  0.16675088  0.77306818  0.24800195    -0.06260
C130        C  0.13133273  0.78594135  0.28152271    -0.17390
C131        C  0.09062893  0.76296259  0.28448044     0.10940
C132        C  0.08413372  0.72666005  0.25199951    -0.06180
C133        C  0.11955321  0.71378445  0.21848063    -0.17420
C134        C  0.16025893  0.73676177  0.21552521     0.10970
S135        S  0.04954997  0.78030412  0.33245384    -0.32380
S136        S  0.20134421  0.71941385  0.16756043    -0.32390
H137        H  0.21620127  0.76230725  0.15507186     0.28980
H138        H  0.03469935  0.73740764  0.34493753     0.28980
H139        H  0.13584332  0.81360911  0.30667642     0.19570
H140        H  0.11504157  0.68611810  0.19332490     0.19570
C141        C  0.33477775  0.77369375  0.25326469    -0.06260
C142        C  0.36525651  0.77996550  0.21158438    -0.17390
C143        C  0.40547886  0.75622798  0.20759789     0.10940
C144        C  0.41610612  0.72607752  0.24673513    -0.06180
C145        C  0.38562916  0.71980841  0.28841732    -0.17420
C146        C  0.34540754  0.74354672  0.29240444     0.10970
S147        S  0.44088409  0.76477269  0.15087785    -0.32380
S148        S  0.31000612  0.73500727  0.34912843    -0.32390
H149        H  0.29324416  0.77830833  0.35155312     0.28980
H150        H  0.45764403  0.72147117  0.14844640     0.28980
H151        H  0.35701945  0.80267482  0.18114812     0.19570
H152        H  0.39386622  0.69709886  0.31885339     0.19570
C153        C  0.08418045  0.72671824  0.50130312    -0.06260
C154        C  0.09225007  0.76136371  0.46631059    -0.17390
C155        C  0.13316720  0.78408795  0.46406012     0.10940
C156        C  0.16684048  0.77301232  0.49865217    -0.06180
C157        C  0.15869848  0.73838894  0.03367253    -0.17420
C158        C  0.11778112  0.71566262  0.03592004     0.10970
S159        S  0.14097928  0.82534514  0.41459125    -0.32380
S160        S  0.10996578  0.67440067  0.08538272    -0.32390
H161        H  0.06417318  0.68367234  0.09540145     0.28980
H162        H  0.18676855  0.81606411  0.40456246     0.28980
H163        H  0.06681705  0.77001816  0.43953399     0.19570
H164        H  0.18413034  0.72973646  0.06045187     0.19570
C165        C  0.33473442  0.77355411  0.50240506    -0.06260
C166        C  0.36534594  0.77929609  0.46082713    -0.17390
C167        C  0.40565595  0.75564337  0.45767940     0.10940
C168        C  0.41628616  0.72623298  0.49757866    -0.06180
C169        C  0.38560751  0.72048780  0.03914841    -0.17420
C170        C  0.34529645  0.74413998  0.04229634     0.10970
S171        S  0.44117155  0.76331253  0.40099057    -0.32380
S172        S  0.30977720  0.73646614  0.09898285    -0.32390
H173        H  0.29299443  0.77977883  0.10045366     0.28980
H174        H  0.45794411  0.71999617  0.39951590     0.28980
H175        H  0.35718790  0.80153155  0.42990323     0.19570
H176        H  0.39376515  0.69825001  0.07007022     0.19570
C177        C  0.41646672  0.27330962  0.24703397    -0.06260
C178        C  0.38335828  0.28305062  0.28490409    -0.17390
C179        C  0.34289442  0.25969619  0.28860523     0.10940
C180        C  0.33448002  0.22639839  0.25271792    -0.06180
C181        C  0.36759415  0.21664621  0.21485955    -0.17420
C182        C  0.40805365  0.24000637  0.21115226     0.10970
S183        S  0.30463717  0.27258833  0.34148107    -0.32380
S184        S  0.44629753  0.22712456  0.15826481    -0.32390
H185        H  0.46247333  0.27036398  0.15112173     0.28980
H186        H  0.28839843  0.22936793  0.34859175     0.28980
H187        H  0.38971768  0.30815674  0.31295866     0.19570
H188        H  0.36123560  0.19153757  0.18680741     0.19570
C189        C  0.08449494  0.27336556  0.25261073    -0.06260
C190        C  0.11745385  0.28323012  0.21444353    -0.17390
C191        C  0.15789879  0.25985984  0.21084656     0.10940
C192        C  0.16645179  0.22642959  0.24714024    -0.06180
C193        C  0.13349853  0.21657587  0.28531875    -0.17420
C194        C  0.09304919  0.23994041  0.28890971     0.10970
S195        S  0.19593693  0.27288505  0.15758560    -0.32380
S196        S  0.05499762  0.22690399  0.34215892    -0.32390
H197        H  0.03878852  0.27011098  0.34870864     0.28980
H198        H  0.21208005  0.22965819  0.15100311     0.28980
H199        H  0.11096965  0.30842909  0.18606630     0.19570
H200        H  0.13998339  0.19137900  0.31369797     0.19570
C201        C  0.33425458  0.22675637  0.50091479    -0.06260
C202        C  0.36295401  0.22651765  0.45715123    -0.17390
C203        C  0.40359379  0.24975004  0.45570255     0.10940
C204        C  0.41638298  0.27308195  0.49932856    -0.06180
C205        C  0.38763864  0.27333150  0.04312301    -0.17420
C206        C  0.34700038  0.25009600  0.04456932     0.10970
S207        S  0.43715038  0.24901868  0.39687037    -0.32380
S208        S  0.31345706  0.25080378  0.10340708    -0.32390
H209        H  0.29551290  0.20822530  0.09887016     0.28980
H210        H  0.45514557  0.29157488  0.40141672     0.28980
H211        H  0.35319463  0.20875299  0.42356044     0.19570
H212        H  0.39740159  0.29108830  0.07671798     0.19570
C213        C  0.16640014  0.22667770  0.49863869    -0.06260
C214        C  0.13806038  0.22558140  0.04276150    -0.17390
C215        C  0.09739877  0.24878316  0.04490104     0.10940
C216        C  0.08423610  0.27299915  0.50162700    -0.06180
C217        C  0.11252790  0.27408649  0.45753008    -0.17420
C218        C  0.15318945  0.25088620  0.45539329     0.10970
S219        S  0.06435328  0.24683590  0.10407485    -0.32380
S220        S  0.18624036  0.25283325  0.39621890    -0.32390
H221        H  0.20437316  0.21021214  0.40019991     0.28980
H222        H  0.04626121  0.28947580  0.10011542     0.28980
H223        H  0.14816522  0.20716327  0.07607946     0.19570
H224        H  0.10242468  0.29250246  0.42420995     0.19570
O225        O  0.28701752  0.06281776  0.49805879    -0.71910
O226        O  0.28713370  0.93762197  0.00018128    -0.72130
O227        O  0.28707830  0.99979861  0.92656356    -0.71990
O228        O  0.28717463  0.00060115  0.57151375    -0.72000
O229        O  0.21409294  0.00049290  0.57468209    -0.71960
O230        O  0.21400154  0.99974933  0.92973490    -0.71980
O231        O  0.21420679  0.93753411  0.50328197    -0.71920
O232        O  0.21400605  0.06274778  0.00123624    -0.72110
V233        V  0.28565829  0.00021786  0.99912039     1.35240
V234        V  0.21547898  0.00014323  0.00216342     1.35170
C235        C  0.25050570  0.08419331  0.49942922     0.77330
C236        C  0.25067337  0.91617164  0.00217201     0.77380
C237        C  0.25053368  0.99963448  0.90355354     0.77250
C238        C  0.25063810  0.00060175  0.59767411     0.77210
O239        O  0.21415622  0.93735742  0.75201132    -0.71910
O240        O  0.21403213  0.06247451  0.75201484    -0.72130
O241        O  0.21408132  0.00037944  0.67964316    -0.71990
O242        O  0.21400356  0.99949721  0.82461689    -0.72000
O243        O  0.28708163  0.99953692  0.82151390    -0.71960
O244        O  0.28716432  0.00047873  0.67654286    -0.71980
O245        O  0.28701254  0.06253153  0.74905070    -0.71920
O246        O  0.28713563  0.93745000  0.74897373    -0.72110
V247        V  0.21548912  0.99992294  0.75203892     1.35240
V248        V  0.28567418  0.99999122  0.74908504     1.35170
C249        C  0.25067723  0.91601776  0.75031082     0.77330
C250        C  0.25050492  0.08388692  0.75048642     0.77380
C251        C  0.25063381  0.00053836  0.65351503     0.77250
C252        C  0.25053301  0.99949181  0.84766353     0.77210
C253        C  0.20948667  0.20265693  0.99921633     0.03000
C254        C  0.20966796  0.15644634  0.99963196    -0.13150
C255        C  0.25041075  0.13299550  0.99917516     0.00500
C256        C  0.29109290  0.15651459  0.99886810    -0.11680
C257        C  0.29115462  0.20271142  0.99970869     0.02990
C258        C  0.25029066  0.22572093  0.99955223    -0.11100
H259        H  0.17796245  0.13892546  0.99971740     0.08580
H260        H  0.32283872  0.13904135  0.99882369     0.06110
H261        H  0.25024157  0.26144342  0.99977740     0.05960
C262        C  0.20967255  0.20228424  0.74772421     0.03000
C263        C  0.20989927  0.15604816  0.74833935    -0.13150
C264        C  0.25047805  0.13261240  0.75032882     0.00500
C265        C  0.29104571  0.15603625  0.75210643    -0.11680
C266        C  0.29126291  0.20226895  0.75223070     0.02990
C267        C  0.25046523  0.22520576  0.74982113    -0.11100
H268        H  0.17833528  0.13843257  0.74684782     0.08580
H269        H  0.32261475  0.13840657  0.75380309     0.06110
H270        H  0.25045683  0.26091286  0.74961082     0.05960
C271        C  0.29160249  0.79775413  0.00219433     0.03000
C272        C  0.29143715  0.84395140  0.00227249    -0.13150
C273        C  0.25073188  0.86738028  0.00271796     0.00500
C274        C  0.21006806  0.84386825  0.00307299    -0.11680
C275        C  0.20984015  0.79762284  0.00046319     0.02990
C276        C  0.25084551  0.77476890  0.00060111    -0.11100
H277        H  0.32312203  0.86148481  0.00251956     0.08580
H278        H  0.17843355  0.86152118  0.00480933     0.06110
H279        H  0.25115959  0.73909058  0.99889987     0.05960
C280        C  0.29164043  0.79780075  0.75339900     0.03000
C281        C  0.29143376  0.84396119  0.75178949    -0.13150
C282        C  0.25078094  0.86728485  0.75012473     0.00500
C283        C  0.21025654  0.84374041  0.74830684    -0.11680
C284        C  0.21000748  0.79742492  0.74920718     0.02990
C285        C  0.25088010  0.77474289  0.75299572    -0.11100
H286        H  0.32306062  0.86156754  0.75241073     0.08580
H287        H  0.17878512  0.86140122  0.74583074     0.06110
H288        H  0.25113441  0.73907025  0.75510786     0.05960
C289        C  0.45928074  0.70202434  0.99776734     0.03000
C290        C  0.00003669  0.72500480  0.99939546    -0.13150
C291        C  0.04104087  0.70214785  0.99952869     0.00500
C292        C  0.04081382  0.65590276  0.99688364    -0.11680
C293        C  0.00014851  0.63239534  0.99719140     0.02990
C294        C  0.45944497  0.65582893  0.99764164    -0.11100
H295        H  0.99972317  0.76068207  0.00112346     0.08580
H296        H  0.07244696  0.63824732  0.99515317     0.06110
H297        H  0.42775841  0.63830064  0.99736496     0.05960
C298        C  0.45923611  0.70196051  0.74659316     0.03000
C299        C  0.45943061  0.65579955  0.74818952    -0.13150
C300        C  0.00007735  0.63246641  0.74984803     0.00500
C301        C  0.04060805  0.65600075  0.75167306    -0.11680
C302        C  0.04086955  0.70231574  0.75078464     0.03070
C303        C  0.00000222  0.72500836  0.74700238    -0.11100
H304        H  0.42779985  0.63820052  0.74756211     0.08580
H305        H  0.07207540  0.63833218  0.75414443     0.06110
H306        H  0.99975637  0.76068139  0.74489923     0.05960
C307        C  0.45941738  0.29710516  0.00060487     0.03000
C308        C  0.45953378  0.34330384  0.00131631    -0.13150
C309        C  0.00024535  0.36677891  0.00095335     0.00500
C310        C  0.04095802  0.34328282  0.00057612    -0.11680
C311        C  0.04108431  0.29707156  0.00112005     0.02990
C312        C  0.50025243  0.27405090  0.00084275    -0.11100
H313        H  0.42780895  0.36081067  0.00129465     0.08580
H314        H  0.07268406  0.36077071  0.00044043     0.06110
H315        H  0.50025809  0.23832755  0.00069838     0.05960
C316        C  0.45967324  0.29746394  0.74748429     0.03000
C317        C  0.00048440  0.27454743  0.74987417    -0.13150
C318        C  0.04126293  0.29748947  0.75200022     0.00500
C319        C  0.04101099  0.34372427  0.75142133    -0.11680
C320        C  0.00041926  0.36714077  0.74945046     0.02990
C321        C  0.45986539  0.34369777  0.74764472    -0.11100
H322        H  0.00051407  0.23884038  0.75006446     0.08580
H323        H  0.07256540  0.36135354  0.75293718     0.06110
H324        H  0.42828731  0.36131375  0.74596615     0.05960
O325        O  0.03673500  0.56219475  0.49659259    -0.71910
O326        O  0.03673210  0.43699252  0.99872807    -0.72130
O327        O  0.03675078  0.49920990  0.92522910    -0.71990
O328        O  0.03684285  0.50001639  0.57017158    -0.72000
O329        O  0.46376594  0.50002949  0.57334555    -0.71960
O330        O  0.46366928  0.49916329  0.92839280    -0.71980
O331        O  0.46379887  0.43697751  0.50189534    -0.71920
O332        O  0.46371661  0.56217694  0.99969357    -0.72110
V333        V  0.03536207  0.49959312  0.49774661     1.35240
V334        V  0.46518274  0.49957921  0.50078881     1.35170
C335        C  0.00023812  0.58359544  0.49770759     0.77330
C336        C  0.00028736  0.41556573  0.50056183     0.77380
C337        C  0.00020756  0.49912297  0.90223396     0.77250
C338        C  0.00031243  0.50016608  0.59635345     0.77210
O339        O  0.46385614  0.43721283  0.75080867    -0.71910
O340        O  0.46371509  0.56230068  0.75096854    -0.72130
O341        O  0.46377142  0.50024538  0.67839258    -0.71990
O342        O  0.46368883  0.49923833  0.82336046    -0.72000
O343        O  0.03677157  0.49934649  0.82026373    -0.71960
O344        O  0.03684959  0.50029236  0.67528617    -0.71980
O345        O  0.03669451  0.56239613  0.74793002    -0.71920
O346        O  0.03683644  0.43728695  0.74784561    -0.72110
V347        V  0.46518189  0.49975695  0.75081880     1.35240
V348        V  0.03536688  0.49983437  0.74786498     1.35170
C349        C  0.00037015  0.41586608  0.74934970     0.77330
C350        C  0.00017375  0.58373406  0.74964144     0.77380
C351        C  0.00031834  0.50030275  0.65224178     0.77250
C352        C  0.00021739  0.49917969  0.84639089     0.77210
C353        C  0.16675008  0.77306908  0.74800812    -0.06260
C354        C  0.13133250  0.78593405  0.78153432    -0.17390
C355        C  0.09062835  0.76295524  0.78448444     0.10940
C356        C  0.08413338  0.72666103  0.75199118    -0.06180
C357        C  0.11955220  0.71379378  0.71846665    -0.17420
C358        C  0.16025826  0.73677115  0.71551886     0.10970
S359        S  0.04954688  0.78028677  0.83246113    -0.32380
S360        S  0.20134596  0.71943337  0.66755065    -0.32390
H361        H  0.21620934  0.76232775  0.65507703     0.28980
H362        H  0.03469003  0.73738935  0.84493020     0.28980
H363        H  0.13584404  0.81359530  0.80669758     0.19570
H364        H  0.11503955  0.68613399  0.69330132     0.19570
C365        C  0.33477687  0.77369360  0.75327083    -0.06260
C366        C  0.36526026  0.77998051  0.71159778    -0.17390
C367        C  0.40548268  0.75624363  0.70760434     0.10940
C368        C  0.41610583  0.72607776  0.74672760    -0.06180
C369        C  0.38562417  0.71979340  0.78840247    -0.17420
C370        C  0.34540248  0.74353105  0.79239653     0.10970
S371        S  0.44089258  0.76480897  0.65089218    -0.32380
S372        S  0.30999633  0.73497090  0.84911258    -0.32390
H373        H  0.29323662  0.77827206  0.85155822     0.28980
H374        H  0.45765033  0.72150737  0.64843995     0.28980
H375        H  0.35702659  0.80270115  0.68117139     0.19570
H376        H  0.39385786  0.69707256  0.81882869     0.19570
C377        C  0.08410911  0.72673914  0.00132733    -0.06260
C378        C  0.09217790  0.76138614  0.96633688    -0.17390
C379        C  0.13309475  0.78411076  0.96408702     0.10940
C380        C  0.16676912  0.77303328  0.99867729    -0.06180
C381        C  0.15877187  0.73836534  0.53364422    -0.17420
C382        C  0.11785479  0.71563871  0.53589201     0.10970
S383        S  0.14090475  0.82537021  0.91462032    -0.32380
S384        S  0.11004331  0.67437307  0.58535124    -0.32390
H385        H  0.06425284  0.68364822  0.59537967     0.28980
H386        H  0.18669218  0.81608547  0.90458425     0.28980
H387        H  0.06674495  0.77004059  0.93955993     0.19570
H388        H  0.18420442  0.72971201  0.56042218     0.19570
C389        C  0.33466643  0.77355077  0.00239649    -0.06260
C390        C  0.36527742  0.77929208  0.96081755    -0.17390
C391        C  0.40558835  0.75564031  0.95767016     0.10940
C392        C  0.41621818  0.72622959  0.99756931    -0.06180
C393        C  0.38567545  0.72049177  0.53915818    -0.17420
C394        C  0.34536347  0.74414298  0.54230502     0.10970
S395        S  0.44110881  0.76331520  0.90098541    -0.32380
S396        S  0.30983862  0.73646344  0.59898686    -0.32390
H397        H  0.29304662  0.77977273  0.60045525     0.28980
H398        H  0.45789083  0.72000233  0.89951296     0.28980
H399        H  0.35711987  0.80152866  0.92989458     0.19570
H400        H  0.39383216  0.69825281  0.57007920     0.19570
C401        C  0.41646677  0.27331102  0.74702556    -0.06260
C402        C  0.38335584  0.28305460  0.78489202    -0.17390
C403        C  0.34289168  0.25970067  0.78859195     0.10940
C404        C  0.33447961  0.22640033  0.75270688    -0.06180
C405        C  0.36759572  0.21664628  0.71485121    -0.17420
C406        C  0.40805570  0.24000595  0.71114530     0.10970
S407        S  0.30463074  0.27259776  0.84146326    -0.32380
S408        S  0.44630300  0.22712063  0.65826168    -0.32390
H409        H  0.46248394  0.27035826  0.65111888     0.28980
H410        H  0.28838802  0.22937905  0.84857645     0.28980
H411        H  0.38971341  0.30816251  0.81294504     0.19570
H412        H  0.36123858  0.19153626  0.68680024     0.19570
C413        C  0.08449466  0.27336585  0.75261002    -0.06260
C414        C  0.11745329  0.28323251  0.71444318    -0.17390
C415        C  0.15789832  0.25986259  0.71084398     0.10940
C416        C  0.16645156  0.22643038  0.74713523    -0.06180
C417        C  0.13349881  0.21657506  0.78531404    -0.17420
C418        C  0.09304902  0.23993897  0.78890677     0.10970
S419        S  0.19593662  0.27289183  0.65758394    -0.32380
S420        S  0.05499643  0.22689864  0.84215436    -0.32390
H421        H  0.03878135  0.27010342  0.84870481     0.28980
H422        H  0.21208426  0.22966681  0.65099921     0.28980
H423        H  0.11096879  0.30843305  0.68606791     0.19570
H424        H  0.13998418  0.19137706  0.81369175     0.19570
C425        C  0.33421129  0.22676599  0.00094169    -0.06260
C426        C  0.36290791  0.22653616  0.95717565    -0.17390
C427        C  0.40354807  0.24976791  0.95573033     0.10940
C428        C  0.41633949  0.27309134  0.99936147    -0.06180
C429        C  0.38767939  0.27333062  0.54308780    -0.17420
C430        C  0.34704068  0.25009586  0.54453695     0.10970
S431        S  0.43710440  0.24904381  0.89689738    -0.32380
S432        S  0.31349227  0.25081801  0.60337103    -0.32390
H433        H  0.29554621  0.20823927  0.59884472     0.28980
H434        H  0.45510426  0.29159714  0.90145270     0.28980
H435        H  0.35314679  0.20877774  0.92358118     0.19570
H436        H  0.39744028  0.29109411  0.57667890     0.19570
C437        C  0.16635658  0.22668300  0.99866877    -0.06260
C438        C  0.13810408  0.22558013  0.54273159    -0.17390
C439        C  0.09744247  0.24878183  0.54486834     0.10940
C440        C  0.08419224  0.27300420  0.00166244    -0.06180
C441        C  0.11248384  0.27409461  0.95756538    -0.17420
C442        C  0.15314563  0.25089489  0.95542598     0.10970
S443        S  0.06439547  0.24683780  0.60404151    -0.32380
S444        S  0.18619710  0.25284795  0.89625185    -0.32390
H445        H  0.20433227  0.21022750  0.90022834     0.28980
H446        H  0.04630194  0.28947674  0.60007796     0.28980
H447        H  0.14820863  0.20716453  0.57605150     0.19570
H448        H  0.10238044  0.29251303  0.92424710     0.19570
O449        O  0.78697879  0.06282493  0.99806269    -0.71910
O450        O  0.78717931  0.93761673  0.50018065    -0.72130
O451        O  0.78711767  0.99979124  0.42655927    -0.71990
O452        O  0.78713589  0.00060613  0.07151300    -0.72000
O453        O  0.71405417  0.00050207  0.07468654    -0.71960
O454        O  0.71404091  0.99973858  0.42973520    -0.71980
O455        O  0.71416118  0.93754531  0.00328373    -0.71920
O456        O  0.71404481  0.06273877  0.50123244    -0.72110
V457        V  0.78569917  0.00021161  0.49911850     1.35240
V458        V  0.71551988  0.00013327  0.50216119     1.35170
C459        C  0.75046719  0.08420141  0.99943505     0.77330
C460        C  0.75072115  0.91616344  0.50217049     0.77380
C461        C  0.75057118  0.99962571  0.40355161     0.77250
C462        C  0.75060139  0.00060836  0.09767578     0.77210
O463        O  0.71415733  0.93735624  0.25201675    -0.71910
O464        O  0.71403209  0.06247334  0.25203226    -0.72130
O465        O  0.71406076  0.00038315  0.17965542    -0.71990
O466        O  0.71402516  0.99949096  0.32462714    -0.72000
O467        O  0.78710324  0.99953210  0.32150109    -0.71960
O468        O  0.78714380  0.00048248  0.17653194    -0.71980
O469        O  0.78701256  0.06253097  0.24904332    -0.71920
O470        O  0.78713678  0.93744961  0.24895576    -0.72110
V471        V  0.71548965  0.99992174  0.25205021     1.35240
V472        V  0.78567474  0.99999072  0.24907298     1.35170
C473        C  0.75067852  0.91601704  0.25030197     0.77330
C474        C  0.75050477  0.08388604  0.25049291     0.77380
C475        C  0.75060706  0.00054321  0.15351605     0.77250
C476        C  0.75056079  0.99948492  0.34766200     0.77210
C477        C  0.70952936  0.20265038  0.49918853     0.03000
C478        C  0.70970871  0.15643970  0.49961340    -0.13150
C479        C  0.75045040  0.13298760  0.49916249     0.00500
C480        C  0.79113357  0.15650560  0.49885232    -0.11680
C481        C  0.79119719  0.20270260  0.49968368     0.02990
C482        C  0.75033418  0.22571328  0.49952068    -0.11100
H483        H  0.67800266  0.13891966  0.49970143     0.08580
H484        H  0.82287878  0.13903148  0.49881240     0.06110
H485        H  0.75028642  0.26143585  0.49973891     0.05960
C486        C  0.70967274  0.20228356  0.24773265     0.03000
C487        C  0.70989920  0.15604745  0.24834761    -0.13150
C488        C  0.75047776  0.13261148  0.25033793     0.00500
C489        C  0.79104540  0.15603506  0.25211722    -0.11680
C490        C  0.79126289  0.20226771  0.25224268     0.02990
C491        C  0.75046544  0.22520496  0.24983211    -0.11100
H492        H  0.67833527  0.13843198  0.24685418     0.08580
H493        H  0.82261431  0.13840517  0.25381408     0.06110
H494        H  0.75045729  0.26091206  0.24962223     0.05960
C495        C  0.79166778  0.79775180  0.50219712     0.03000
C496        C  0.79149524  0.84394896  0.50227787    -0.13150
C497        C  0.75078639  0.86737200  0.50271477     0.00500
C498        C  0.71012671  0.84385397  0.50305847    -0.11680
C499        C  0.70990688  0.79760847  0.50044597     0.02990
C500        C  0.75091537  0.77476071  0.50059208    -0.11100
H501        H  0.82317727  0.86148675  0.50253314     0.08580
H502        H  0.67848947  0.86150224  0.50478833     0.06110
H503        H  0.75123556  0.73908251  0.49888830     0.05960
C504        C  0.79164180  0.79780057  0.25338744     0.03000
C505        C  0.79143550  0.84396077  0.25177532    -0.13150
C506        C  0.75078264  0.86728424  0.25011123     0.00500
C507        C  0.71025836  0.84373970  0.24829263    -0.11680
C508        C  0.71000894  0.79742404  0.24919548     0.02990
C509        C  0.75088164  0.77474240  0.25298656    -0.11100
H510        H  0.82306242  0.86156700  0.25239659     0.08580
H511        H  0.67878719  0.86140081  0.24581567     0.06110
H512        H  0.75113635  0.73907000  0.25510432     0.05960
C513        C  0.95934594  0.70202207  0.49777160     0.03000
C514        C  0.50010643  0.72499673  0.49938834    -0.13150
C515        C  0.54110753  0.70213367  0.49951290     0.00500
C516        C  0.54087245  0.65588872  0.49686986    -0.11680
C517        C  0.50020306  0.63238729  0.49718918     0.02990
C518        C  0.95950301  0.65582657  0.49764814    -0.11100
H519        H  0.49979891  0.76067415  0.50111413     0.08580
H520        H  0.57250283  0.63822870  0.49513210     0.06110
H521        H  0.92781363  0.63830262  0.49737945     0.05960
C522        C  0.95923565  0.70196017  0.24660582     0.03000
C523        C  0.95942928  0.65579944  0.24820383    -0.13150
C524        C  0.50007581  0.63246602  0.24986141     0.00500
C525        C  0.54060661  0.65600003  0.25168787    -0.11680
C526        C  0.54086897  0.70231518  0.25079782     0.03070
C527        C  0.50000182  0.72500789  0.24701320    -0.11100
H528        H  0.92779827  0.63820086  0.24757598     0.08580
H529        H  0.57207350  0.63833079  0.25416004     0.06110
H530        H  0.49975591  0.76068070  0.24490500     0.05960
C531        C  0.95946063  0.29709668  0.50056982     0.03000
C532        C  0.95957532  0.34329525  0.50129221    -0.13150
C533        C  0.50028590  0.36677141  0.50093366     0.00500
C534        C  0.54099966  0.34327655  0.50054950    -0.11680
C535        C  0.54112773  0.29706543  0.50108229     0.02990
C536        C  0.00029673  0.27404363  0.50080114    -0.11100
H537        H  0.92784994  0.36080137  0.50127616     0.08580
H538        H  0.57272515  0.36076516  0.50041842     0.06110
H539        H  0.00030382  0.23832034  0.50065064     0.05960
C540        C  0.95967299  0.29746306  0.24748939     0.03000
C541        C  0.50048438  0.27454688  0.24987737    -0.13150
C542        C  0.54126305  0.29748922  0.25200007     0.00500
C543        C  0.54101088  0.34372410  0.25141747    -0.11680
C544        C  0.50041879  0.36714033  0.24944807     0.02990
C545        C  0.95986478  0.34369690  0.24764722    -0.11100
H546        H  0.50051407  0.23883982  0.25006930     0.08580
H547        H  0.57256530  0.36135368  0.25293064     0.06110
H548        H  0.92828638  0.36131251  0.24597012     0.05960
O549        O  0.53668909  0.56220541  0.99659427    -0.71910
O550        O  0.53677166  0.43698400  0.49872249    -0.72130
O551        O  0.53678977  0.49920195  0.42522426    -0.71990
O552        O  0.53680254  0.50002701  0.07017186    -0.72000
O553        O  0.96372560  0.50003705  0.07334992    -0.71960
O554        O  0.96370818  0.49915923  0.42839352    -0.71980
O555        O  0.96375933  0.43698426  0.00190063    -0.71920
O556        O  0.96376249  0.56217189  0.49969347    -0.72110
V557        V  0.53532062  0.49960260  0.99774946     1.35240
V558        V  0.96514128  0.49958517  0.00079076     1.35170
C559        C  0.50019016  0.58360337  0.99770868     0.77330
C560        C  0.50024802  0.41557337  0.00057063     0.77380
C561        C  0.50024435  0.49911737  0.40223221     0.77250
C562        C  0.50027390  0.50017448  0.09635577     0.77210
O563        O  0.96385517  0.43721231  0.25081798    -0.71910
O564        O  0.96371351  0.56230027  0.25098584    -0.72130
O565        O  0.96374876  0.50024858  0.17840576    -0.71990
O566        O  0.96370896  0.49923477  0.32337166    -0.72000
O567        O  0.53679179  0.49934241  0.32025144    -0.71960
O568        O  0.53682697  0.50029706  0.17527614    -0.71980
O569        O  0.53669299  0.56239612  0.24792404    -0.71920
O570        O  0.53683554  0.43728696  0.24782938    -0.72110
V571        V  0.96518060  0.49975657  0.25083124     1.35240
V572        V  0.53536565  0.49983445  0.24785382     1.35170
C573        C  0.50036935  0.41586577  0.24934617     0.77330
C574        C  0.50017219  0.58373379  0.24964972     0.77380
C575        C  0.50028950  0.50030835  0.15224369     0.77250
C576        C  0.50024391  0.49917520  0.34638998     0.77210
C577        C  0.66675089  0.77306817  0.24800190    -0.06260
C578        C  0.63133273  0.78594135  0.28152264    -0.17390
C579        C  0.59062893  0.76296260  0.28448038     0.10940
C580        C  0.58413373  0.72666005  0.25199946    -0.06180
C581        C  0.61955322  0.71378444  0.21848059    -0.17420
C582        C  0.66025894  0.73676175  0.21552517     0.10970
S583        S  0.54954998  0.78030413  0.33245377    -0.32380
S584        S  0.70134423  0.71941380  0.16756042    -0.32390
H585        H  0.71620128  0.76230720  0.15507182     0.28980
H586        H  0.53469934  0.73740765  0.34493746     0.28980
H587        H  0.63584332  0.81360913  0.30667634     0.19570
H588        H  0.61504158  0.68611808  0.19332488     0.19570
C589        C  0.83477775  0.77369376  0.25326467    -0.06260
C590        C  0.86525652  0.77996549  0.21158438    -0.17390
C591        C  0.90547887  0.75622796  0.20759791     0.10940
C592        C  0.91610612  0.72607752  0.24673517    -0.06180
C593        C  0.88562914  0.71980842  0.28841735    -0.17420
C594        C  0.84540753  0.74354674  0.29240445     0.10970
S595        S  0.94088412  0.76477264  0.15087787    -0.32380
S596        S  0.81000609  0.73500732  0.34912843    -0.32390
H597        H  0.79324413  0.77830839  0.35155309     0.28980
H598        H  0.95764405  0.72147112  0.14844645     0.28980
H599        H  0.85701948  0.80267479  0.18114809     0.19570
H600        H  0.89386620  0.69709889  0.31885344     0.19570
C601        C  0.58418044  0.72671832  0.50130313    -0.06260
C602        C  0.59225011  0.76136375  0.46631056    -0.17390
C603        C  0.63316727  0.78408795  0.46406009     0.10940
C604        C  0.66684051  0.77301232  0.49865217    -0.06180
C605        C  0.65869851  0.73838902  0.03367254    -0.17420
C606        C  0.61778118  0.71566265  0.03592003     0.10970
S607        S  0.64097941  0.82534508  0.41459118    -0.32380
S608        S  0.60996590  0.67440068  0.08538271    -0.32390
H609        H  0.56417330  0.68367232  0.09540147     0.28980
H610        H  0.68676869  0.81606402  0.40456245     0.28980
H611        H  0.56681712  0.77001819  0.43953393     0.19570
H612        H  0.68413038  0.72973656  0.06045188     0.19570
C613        C  0.83473445  0.77355405  0.50240512    -0.06260
C614        C  0.86534597  0.77929603  0.46082719    -0.17390
C615        C  0.90565597  0.75564329  0.45767944     0.10940
C616        C  0.91628617  0.72623288  0.49757869    -0.06180
C617        C  0.88560747  0.72048790  0.03914838    -0.17420
C618        C  0.84529642  0.74414011  0.04229633     0.10970
S619        S  0.94117157  0.76331246  0.40099061    -0.32380
S620        S  0.80977717  0.73646626  0.09898284    -0.32390
H621        H  0.79299441  0.77977896  0.10045366     0.28980
H622        H  0.95794412  0.71999609  0.39951592     0.28980
H623        H  0.85718794  0.80153150  0.42990329     0.19570
H624        H  0.89376509  0.69825009  0.07007018     0.19570
C625        C  0.91646673  0.27330961  0.24703377    -0.06260
C626        C  0.88335826  0.28305100  0.28490372    -0.17390
C627        C  0.84289441  0.25969656  0.28860522     0.10940
C628        C  0.83448003  0.22639835  0.25271841    -0.06180
C629        C  0.86759419  0.21664578  0.21486022    -0.17420
C630        C  0.90805367  0.24000593  0.21115258     0.10970
S631        S  0.80463720  0.27258924  0.34148090    -0.32380
S632        S  0.94629751  0.22712357  0.15826527    -0.32390
H633        H  0.96247322  0.27036296  0.15112153     0.28980
H634        H  0.78839852  0.22936889  0.34859221     0.28980
H635        H  0.88971763  0.30815742  0.31295794     0.19570
H636        H  0.86123567  0.19153683  0.18680843     0.19570
C637        C  0.58449491  0.27336561  0.25261155    -0.06260
C638        C  0.61745393  0.28323035  0.21444453    -0.17390
C639        C  0.65789887  0.25986008  0.21084754     0.10940
C640        C  0.66645177  0.22642965  0.24714104    -0.06180
C641        C  0.63349844  0.21657580  0.28531942    -0.17420
C642        C  0.59304909  0.23994032  0.28891039     0.10970
S643        S  0.69593713  0.27288553  0.15758677    -0.32380
S644        S  0.55499744  0.22690374  0.34215946    -0.32390
H645        H  0.53878836  0.27011072  0.34870934     0.28980
H646        H  0.71208022  0.22965870  0.15100401     0.28980
H647        H  0.61096981  0.30842945  0.18606743     0.19570
H648        H  0.63998324  0.19137882  0.31369854     0.19570
C649        C  0.83425459  0.22675631  0.50091451    -0.06260
C650        C  0.86295381  0.22651820  0.45715077    -0.17390
C651        C  0.90359360  0.24975055  0.45570229     0.10940
C652        C  0.91638300  0.27308183  0.49932868    -0.06180
C653        C  0.88763886  0.27333098  0.04312391    -0.17420
C654        C  0.84700057  0.25009550  0.04457003     0.10970
S655        S  0.93715002  0.24901990  0.39686996    -0.32380
S656        S  0.81345744  0.25080258  0.10340794    -0.32390
H657        H  0.79551311  0.20822424  0.09887034     0.28980
H658        H  0.95514538  0.29157597  0.40141700     0.28980
H659        H  0.85319427  0.20875400  0.42355972     0.19570
H660        H  0.89740197  0.29108732  0.07671914     0.19570
C661        C  0.66640014  0.22667769  0.49863818    -0.06260
C662        C  0.63806078  0.22558239  0.04276159    -0.17390
C663        C  0.59739914  0.24878410  0.04490089     0.10940
C664        C  0.58423611  0.27299921  0.50162656    -0.06180
C665        C  0.61252810  0.27408690  0.45752981    -0.17420
C666        C  0.65318964  0.25088658  0.45539297     0.10970
S667        S  0.56435403  0.24683792  0.10407502    -0.32380
S668        S  0.68624076  0.25283406  0.39621875    -0.32390
H669        H  0.70437342  0.21021286  0.40019936     0.28980
H670        H  0.54626168  0.28947762  0.10011459     0.28980
H671        H  0.64816593  0.20716496  0.07607993     0.19570
H672        H  0.60242503  0.29250314  0.42420981     0.19570
O673        O  0.78701753  0.06281772  0.49805874    -0.71910
O674        O  0.78713367  0.93762210  0.00018131    -0.72130
O675        O  0.78707831  0.99979874  0.92656358    -0.71990
O676        O  0.78717468  0.00060113  0.57151374    -0.72000
O677        O  0.71409299  0.00049287  0.57468210    -0.71960
O678        O  0.71400155  0.99974946  0.92973490    -0.71980
O679        O  0.71420683  0.93753406  0.50328202    -0.71920
O680        O  0.71400606  0.06274793  0.00123623    -0.72110
V681        V  0.78565828  0.00021799  0.99912041     1.35240
V682        V  0.71547897  0.00014338  0.00216342     1.35170
C683        C  0.75050570  0.08419327  0.49942912     0.77330
C684        C  0.75067334  0.91617178  0.00217203     0.77380
C685        C  0.75053369  0.99963461  0.90355355     0.77250
C686        C  0.75063816  0.00060170  0.59767411     0.77210
O687        O  0.71415624  0.93735740  0.75201142    -0.71910
O688        O  0.71403220  0.06247448  0.75201469    -0.72130
O689        O  0.71408137  0.00037934  0.67964315    -0.71990
O690        O  0.71400359  0.99949729  0.82461688    -0.72000
O691        O  0.78708166  0.99953695  0.82151391    -0.71960
O692        O  0.78716438  0.00047864  0.67654286    -0.71980
O693        O  0.78701260  0.06253149  0.74905061    -0.71920
O694        O  0.78713565  0.93744997  0.74897381    -0.72110
V695        V  0.71548917  0.99992292  0.75203891     1.35240
V696        V  0.78567422  0.99999119  0.74908504     1.35170
C697        C  0.75067725  0.91601774  0.75031092     0.77330
C698        C  0.75050499  0.08388689  0.75048620     0.77380
C699        C  0.75063387  0.00053827  0.65351502     0.77250
C700        C  0.75053304  0.99949189  0.84766353     0.77210
C701        C  0.70948669  0.20265706  0.99921628     0.03000
C702        C  0.70966798  0.15644647  0.99963188    -0.13150
C703        C  0.75041077  0.13299564  0.99917520     0.00500
C704        C  0.79109291  0.15651474  0.99886828    -0.11680
C705        C  0.79115462  0.20271156  0.99970887     0.02990
C706        C  0.75029066  0.22572108  0.99955229    -0.11100
H707        H  0.67796247  0.13892560  0.99971721     0.08580
H708        H  0.82283874  0.13904151  0.99882396     0.06110
H709        H  0.75024155  0.26144356  0.99977746     0.05960
C710        C  0.70967259  0.20228415  0.74772292     0.03000
C711        C  0.70989935  0.15604807  0.74833831    -0.13150
C712        C  0.75047811  0.13261236  0.75032833     0.00500
C713        C  0.79104572  0.15603624  0.75210620    -0.11680
C714        C  0.79126290  0.20226895  0.75223018     0.02990
C715        C  0.75046523  0.22520572  0.74982006    -0.11100
H716        H  0.67833539  0.13843244  0.74684660     0.08580
H717        H  0.82261475  0.13840658  0.75380331     0.06110
H718        H  0.75045680  0.26091281  0.74960958     0.05960
C719        C  0.79160247  0.79775427  0.00219432     0.03000
C720        C  0.79143712  0.84395154  0.00227250    -0.13150
C721        C  0.75073185  0.86738042  0.00271797     0.00500
C722        C  0.71006803  0.84386838  0.00307299    -0.11680
C723        C  0.70984012  0.79762297  0.00046319     0.02990
C724        C  0.75084549  0.77476903  0.00060110    -0.11100
H725        H  0.82312199  0.86148495  0.00251956     0.08580
H726        H  0.67843352  0.86152130  0.00480934     0.06110
H727        H  0.75115959  0.73909071  0.99889986     0.05960
C728        C  0.79164042  0.79780072  0.75339908     0.03000
C729        C  0.79143376  0.84396117  0.75178959    -0.13150
C730        C  0.75078094  0.86728483  0.75012484     0.00500
C731        C  0.71025654  0.84374040  0.74830695    -0.11680
C732        C  0.71000747  0.79742490  0.74920727     0.02990
C733        C  0.75088010  0.77474287  0.75299580    -0.11100
H734        H  0.82306062  0.86156751  0.75241084     0.08580
H735        H  0.67878512  0.86140121  0.74583085     0.06110
H736        H  0.75113440  0.73907022  0.75510793     0.05960
C737        C  0.95928069  0.70202442  0.99776730     0.03000
C738        C  0.50003674  0.72500474  0.99939547    -0.13150
C739        C  0.54104093  0.70214781  0.99952871     0.00500
C740        C  0.54081389  0.65590270  0.99688371    -0.11680
C741        C  0.50014859  0.63239528  0.99719150     0.02990
C742        C  0.95944490  0.65582901  0.99764155    -0.11100
H743        H  0.49972321  0.76068201  0.00112345     0.08580
H744        H  0.57244704  0.63824727  0.99515323     0.06110
H745        H  0.92775833  0.63830073  0.99736485     0.05960
C746        C  0.95923611  0.70196054  0.74659311     0.03000
C747        C  0.95943061  0.65579958  0.74818942    -0.13150
C748        C  0.50007736  0.63246639  0.74984816     0.00500
C749        C  0.54060805  0.65600074  0.75167318    -0.11680
C750        C  0.54086954  0.70231573  0.75078473     0.03070
C751        C  0.50000221  0.72500834  0.74700243    -0.11100
H752        H  0.92779984  0.63820056  0.74756201     0.08580
H753        H  0.57207540  0.63833218  0.75414457     0.06110
H754        H  0.49975636  0.76068136  0.74489925     0.05960
C755        C  0.95941736  0.29710523  0.00060570     0.03000
C756        C  0.95953377  0.34330391  0.00131689    -0.13150
C757        C  0.50024535  0.36677885  0.00095293     0.00500
C758        C  0.54095803  0.34328277  0.00057556    -0.11680
C759        C  0.54108432  0.29707151  0.00111923     0.02990
C760        C  0.00025240  0.27405095  0.00084368    -0.11100
H761        H  0.92780895  0.36081073  0.00129511     0.08580
H762        H  0.57268407  0.36077065  0.00044000     0.06110
H763        H  0.00025804  0.23832761  0.00069938     0.05960
C764        C  0.95967326  0.29746392  0.74748499     0.03000
C765        C  0.50048438  0.27454740  0.74987293    -0.13150
C766        C  0.54126295  0.29748937  0.75199895     0.00500
C767        C  0.54101105  0.34372419  0.75142044    -0.11680
C768        C  0.50041931  0.36714074  0.74945004     0.02990
C769        C  0.95986537  0.34369775  0.74764502    -0.11100
H770        H  0.50051401  0.23884035  0.75006292     0.08580
H771        H  0.57256549  0.36135341  0.75293626     0.06110
H772        H  0.92828731  0.36131370  0.74596604     0.05960
O773        O  0.53673499  0.56219485  0.49659268    -0.71910
O774        O  0.53673211  0.43699244  0.99872804    -0.72130
O775        O  0.53675084  0.49920987  0.92522916    -0.71990
O776        O  0.53684288  0.50001647  0.57017163    -0.72000
O777        O  0.96376592  0.50002943  0.57334548    -0.71960
O778        O  0.96366922  0.49916330  0.92839276    -0.71980
O779        O  0.96379885  0.43697741  0.50189531    -0.71920
O780        O  0.96371654  0.56217700  0.99969346    -0.72110
V781        V  0.53536207  0.49959324  0.49774666     1.35240
V782        V  0.96518274  0.49957912  0.50078873     1.35170
C783        C  0.50023811  0.58359554  0.49770769     0.77330
C784        C  0.50028739  0.41556583  0.50056180     0.77380
C785        C  0.50020762  0.49912294  0.90223401     0.77250
C786        C  0.50031246  0.50016614  0.59635351     0.77210
O787        O  0.96385607  0.43721286  0.75080868    -0.71910
O788        O  0.96371506  0.56230071  0.75096843    -0.72130
O789        O  0.96377138  0.50024537  0.67839251    -0.71990
O790        O  0.96368877  0.49923839  0.82336041    -0.72000
O791        O  0.53677164  0.49934641  0.82026378    -0.71960
O792        O  0.53684963  0.50029242  0.67528622    -0.71980
O793        O  0.53669454  0.56239612  0.74793015    -0.71920
O794        O  0.53683651  0.43728693  0.74784555    -0.72110
V795        V  0.96518184  0.49975698  0.75081874     1.35240
V796        V  0.53536693  0.49983436  0.74786503     1.35170
C797        C  0.50037022  0.41586605  0.74934958     0.77330
C798        C  0.50017378  0.58373404  0.74964157     0.77380
C799        C  0.50031839  0.50030279  0.65224184     0.77250
C800        C  0.50021745  0.49917963  0.84639095     0.77210
C801        C  0.66675007  0.77306907  0.74800819    -0.06260
C802        C  0.63133248  0.78593405  0.78153437    -0.17390
C803        C  0.59062834  0.76295525  0.78448449     0.10940
C804        C  0.58413337  0.72666102  0.75199125    -0.06180
C805        C  0.61955220  0.71379376  0.71846674    -0.17420
C806        C  0.66025826  0.73677113  0.71551895     0.10970
S807        S  0.54954685  0.78028680  0.83246116    -0.32380
S808        S  0.70134596  0.71943334  0.66755073    -0.32390
H809        H  0.71620935  0.76232772  0.65507712     0.28980
H810        H  0.53469001  0.73738938  0.84493026     0.28980
H811        H  0.63584403  0.81359530  0.80669764     0.19570
H812        H  0.61503955  0.68613396  0.69330142     0.19570
C813        C  0.83477687  0.77369358  0.75327088    -0.06260
C814        C  0.86526023  0.77998051  0.71159781    -0.17390
C815        C  0.90548266  0.75624365  0.70760434     0.10940
C816        C  0.91610584  0.72607778  0.74672759    -0.06180
C817        C  0.88562420  0.71979340  0.78840248    -0.17420
C818        C  0.84540250  0.74353103  0.79239656     0.10970
S819        S  0.94089254  0.76480902  0.65089217    -0.32380
S820        S  0.80999637  0.73497085  0.84911263    -0.32390
H821        H  0.79323665  0.77827201  0.85155829     0.28980
H822        H  0.95765029  0.72150742  0.64843991     0.28980
H823        H  0.85702653  0.80270115  0.68117144     0.19570
H824        H  0.89385792  0.69707256  0.81882868     0.19570
C825        C  0.58410915  0.72673912  0.00132733    -0.06260
C826        C  0.59217791  0.76138615  0.96633689    -0.17390
C827        C  0.63309472  0.78411082  0.96408705     0.10940
C828        C  0.66676911  0.77303338  0.99867731    -0.06180
C829        C  0.65877186  0.73836538  0.53364427    -0.17420
C830        C  0.61785475  0.71563879  0.53589206     0.10970
S831        S  0.64090467  0.82537030  0.91462037    -0.32380
S832        S  0.61004321  0.67437321  0.58535135    -0.32390
H833        H  0.56425274  0.68364841  0.59537972     0.28980
H834        H  0.68669211  0.81608561  0.90458427     0.28980
H835        H  0.56674494  0.77004057  0.93955995     0.19570
H836        H  0.68420438  0.72971206  0.56042226     0.19570
C837        C  0.83466641  0.77355092  0.00239649    -0.06260
C838        C  0.86527740  0.77929222  0.96081755    -0.17390
C839        C  0.90558832  0.75564043  0.95767015     0.10940
C840        C  0.91621813  0.72622969  0.99756928    -0.06180
C841        C  0.88567546  0.72049167  0.53915821    -0.17420
C842        C  0.84536350  0.74414290  0.54230506     0.10970
S843        S  0.94110878  0.76331533  0.90098540    -0.32380
S844        S  0.80983864  0.73646336  0.59898689    -0.32390
H845        H  0.79304665  0.77977265  0.60045531     0.28980
H846        H  0.95789079  0.72000245  0.89951293     0.28980
H847        H  0.85711986  0.80152882  0.92989459     0.19570
H848        H  0.89383216  0.69825270  0.57007922     0.19570
C849        C  0.91646682  0.27331096  0.74702598    -0.06260
C850        C  0.88335550  0.28305485  0.78489190    -0.17390
C851        C  0.84289131  0.25970096  0.78859154     0.10940
C852        C  0.83447959  0.22640034  0.75270669    -0.06180
C853        C  0.86759609  0.21664597  0.71485157    -0.17420
C854        C  0.90805610  0.24000560  0.71114595     0.10970
S855        S  0.80462989  0.27259843  0.84146227    -0.32380
S856        S  0.94630388  0.22711989  0.65826291    -0.32390
H857        H  0.96248476  0.27035750  0.65111979     0.28980
H858        H  0.78838718  0.22937974  0.84857573     0.28980
H859        H  0.88971279  0.30816298  0.81294475     0.19570
H860        H  0.86123923  0.19153573  0.68680077     0.19570
C861        C  0.58449463  0.27336568  0.75260859    -0.06260
C862        C  0.61745333  0.28323247  0.71444187    -0.17390
C863        C  0.65789838  0.25986256  0.71084266     0.10940
C864        C  0.66645155  0.22643022  0.74713377    -0.06180
C865        C  0.63349869  0.21657471  0.78531239    -0.17420
C866        C  0.59304891  0.23993860  0.78890514     0.10970
S867        S  0.69593678  0.27289195  0.65758276    -0.32380
S868        S  0.55499622  0.22689800  0.84215256    -0.32390
H869        H  0.53878124  0.27010278  0.84870337     0.28980
H870        H  0.71208446  0.22966696  0.65099795     0.28980
H871        H  0.61096889  0.30843312  0.68606672     0.19570
H872        H  0.63998398  0.19137659  0.81368997     0.19570
C873        C  0.83421127  0.22676614  0.00094202    -0.06260
C874        C  0.86290766  0.22653694  0.95717579    -0.17390
C875        C  0.90354783  0.24976865  0.95573067     0.10940
C876        C  0.91633948  0.27309142  0.99936218    -0.06180
C877        C  0.88767964  0.27332986  0.54308811    -0.17420
C878        C  0.84704091  0.25009512  0.54453705     0.10970
S879        S  0.93710393  0.24904531  0.89689753    -0.32380
S880        S  0.81349274  0.25081649  0.60337131    -0.32390
H881        H  0.79554654  0.20823787  0.59884429     0.28980
H882        H  0.95510395  0.29159850  0.90145354     0.28980
H883        H  0.85314636  0.20877901  0.92358104     0.19570
H884        H  0.89744070  0.29109285  0.57667950     0.19570
C885        C  0.66635661  0.22668309  0.99866853    -0.06260
C886        C  0.63810388  0.22557977  0.54273091    -0.17390
C887        C  0.59744229  0.24878149  0.54486770     0.10940
C888        C  0.58419223  0.27300418  0.00166175    -0.06180
C889        C  0.61248344  0.27409369  0.95756437    -0.17420
C890        C  0.65314526  0.25089401  0.95542520     0.10970
S891        S  0.56439507  0.24683700  0.60404070    -0.32380
S892        S  0.68619633  0.25284596  0.89625076    -0.32390
H893        H  0.70433182  0.21022572  0.90022829     0.28980
H894        H  0.54630167  0.28947603  0.60007757     0.28980
H895        H  0.64820829  0.20716389  0.57605068     0.19570
H896        H  0.60237974  0.29251140  0.92424571     0.19570
loop_ 
_geom_bond_atom_site_label_1 
_geom_bond_atom_site_label_2 
_geom_bond_distance 
_geom_bond_site_symmetry_2 
_ccdc_geom_bond_type 
O1           C11   1.265       .  A
O1          V233   1.900       .  S
O2           C12   1.265       .  A
O2            V9   1.900   1_565  S
O3           C13   1.263       .  A
O3            V9   1.898   1_565  S
O4           C14   1.263       .  A
O4          V233   1.897   1_554  S
O5           C14   1.263       .  A
O5          V234   1.897       .  S
O6           C13   1.263       .  A
O6           V10   1.898   1_565  S
O7          C236   1.265       .  A
O7          V234   1.900   1_565  S
O8          C235   1.265       .  A
O8           V10   1.900       .  S
V9          O225   1.900       .  S
V9          O228   1.897       .  S
V9           V10   2.088       .  T
V10         O229   1.897       .  S
V10         O231   1.900   1_545  S
C11         O232   1.265   1_556  A
C11         C255   1.481       .  S
C12         O231   1.265       .  A
C12          C49   1.481       .  S
C13          C28   1.463       .  S
C14          C27   1.461       .  S
O15          C25   1.265       .  A
O15          V23   1.899       .  S
O16          C26   1.265       .  A
O16          V23   1.899   1_545  S
O17          C27   1.263       .  A
O17          V23   1.896   1_545  S
O18          C28   1.263       .  A
O18          V23   1.898       .  S
O19          C28   1.263       .  A
O19          V24   1.897       .  S
O20          C27   1.263       .  A
O20          V24   1.897   1_545  S
O21          C26   1.265       .  A
O21          V24   1.898   1_545  S
O22          C25   1.265       .  A
O22          V24   1.898       .  S
V23          V24   2.088       .  T
C25          C58   1.479       .  S
C26          C40   1.479       .  S
C29         C213   1.477       .  S
C29          C30   1.402       .  A
C29          C34   1.403       .  A
C30          C31   1.406       .  A
C30          H35   1.083       .  S
C31         C235   1.481       .  S
C31          C32   1.406       .  A
C32          C33   1.402       .  A
C32          H36   1.084       .  S
C33         C201   1.477       .  S
C33          C34   1.403       .  A
C34          H37   1.084       .  S
C38         C192   1.481       .  S
C38          C39   1.403       .  A
C38          C43   1.403       .  A
C39          C40   1.404       .  A
C39          H44   1.083       .  S
C40          C41   1.404       .  A
C41          C42   1.403       .  A
C41          H45   1.083       .  S
C42         C180   1.481       .  S
C42          C43   1.403       .  A
C43          H46   1.084       .  S
C47         C165   1.477       .  S
C47          C48   1.402       .  A
C47          C52   1.402       .  A
C48          C49   1.405       .  A
C48          H53   1.083       .  S
C49          C50   1.405       .  A
C50          C51   1.406       .  A
C50          H54   1.083       .  S
C51         C156   1.486       .  S
C51          C52   1.404       .  A
C52          H55   1.084       .  S
C56         C141   1.478       .  S
C56          C57   1.401       .  A
C56          C61   1.401       .  A
C57          C58   1.404       .  A
C57          H62   1.083       .  S
C58          C59   1.405       .  A
C59          C60   1.405       .  A
C59          H63   1.083       .  S
C60         C129   1.487       .  S
C60          C61   1.404       .  A
C61          H64   1.084       .  S
C65         C168   1.477       .  S
C65          C70   1.402       .  A
C65         C514   1.402       .  A
C66          C67   1.404       .  A
C66         C513   1.402   1_455  A
C66          H71   1.084   1_455  S
C67         C153   1.486       .  S
C67          C68   1.406       .  A
C68          C69   1.405       .  A
C68          H72   1.083       .  S
C69         C335   1.481       .  S
C69         C518   1.405   1_455  A
C70         C517   1.405       .  A
C70          H73   1.083       .  S
C74         C144   1.478       .  S
C74          C75   1.401       .  A
C74         C527   1.401       .  A
C75         C524   1.404       .  A
C75          H80   1.083       .  S
C76         C126   1.479       .  S
C76          C77   1.405       .  A
C76         C523   1.404   1_455  A
C77          C78   1.405       .  A
C77          H81   1.083       .  S
C78         C132   1.487       .  S
C78          C79   1.404       .  A
C79         C522   1.401   1_455  A
C79          H82   1.084   1_455  S
C83         C204   1.477       .  S
C83          C84   1.402       .  A
C83          C88   1.403       .  A
C84         C533   1.406       .  A
C84          H89   1.084       .  S
C85         C336   1.481       .  S
C85          C86   1.406       .  A
C85         C532   1.406   1_455  A
C86          C87   1.402       .  A
C86          H90   1.083       .  S
C87         C216   1.477       .  S
C87         C536   1.403       .  A
C88         C535   1.403       .  A
C88          H91   1.084       .  S
C92         C177   1.481       .  S
C92          C97   1.403       .  A
C92         C541   1.403       .  A
C93          C94   1.403       .  A
C93         C540   1.403   1_455  A
C93          H98   1.084       .  S
C94         C189   1.481       .  S
C94          C95   1.403       .  A
C95          C96   1.404       .  A
C95          H99   1.083       .  S
C96         C125   1.479       .  S
C96         C545   1.404   1_455  A
C97         C544   1.404       .  A
C97         H100   1.083       .  S
O101        C111   1.265       .  A
O101        V109   1.900       .  S
O102        C336   1.265       .  A
O102        V333   1.900       .  S
O103        C113   1.263       .  A
O103        V333   1.897       .  S
O104        C114   1.263       .  A
O104        V109   1.897   1_554  S
O105        C562   1.263       .  A
O105        V110   1.898       .  S
O106        C561   1.263       .  A
O106        V334   1.897       .  S
O107        C560   1.265       .  A
O107        V110   1.900       .  S
O108        C783   1.265       .  A
O108        V334   1.900       .  S
V109        O326   1.900       .  S
V109        O327   1.897       .  S
V109        V558   2.088   1_456  T
V110        O330   1.897   1_554  S
V110        O332   1.900   1_554  S
V110        V557   2.088   1_554  T
C111        O780   1.265   1_455  A
C111        C293   1.481       .  S
C112        O326   1.265   1_554  A
C112        O555   1.265   1_455  A
C112        C309   1.481       .  S
C113        O554   1.263   1_455  A
C113        C128   1.461       .  S
C114        O553   1.263   1_455  A
C114        C127   1.462       .  S
O115        C573   1.265       .  A
O115        V123   1.898       .  S
O116        C574   1.265       .  A
O116        V123   1.898       .  S
O117        C575   1.263       .  A
O117        V123   1.897       .  S
O118        C576   1.263       .  A
O118        V123   1.897       .  S
O119        C128   1.263       .  A
O119        V124   1.896       .  S
O120        C127   1.263       .  A
O120        V124   1.898       .  S
O121        C126   1.265       .  A
O121        V124   1.899       .  S
O122        C125   1.265       .  A
O122        V124   1.899       .  S
V123        V572   2.088       .  T
V124        V571   2.088   1_455  T
C125        O563   1.265   1_455  A
C126        O564   1.265   1_455  A
C127        O565   1.263   1_455  A
C128        O566   1.263   1_455  A
C129        C130   1.403       .  A
C129        C134   1.415       .  A
C130        C131   1.398       .  A
C130        H139   1.082       .  S
C131        C132   1.415       .  A
C131        S135   1.801       .  S
C132        C133   1.403       .  A
C133        C134   1.398       .  A
C133        H140   1.082       .  S
C134        S136   1.801       .  S
S135        H138   1.407       .  S
S136        H137   1.407       .  S
C141        C142   1.404       .  A
C141        C146   1.413       .  A
C142        C143   1.398       .  A
C142        H151   1.084       .  S
C143        C144   1.413       .  A
C143        S147   1.805       .  S
C144        C145   1.404       .  A
C145        C146   1.398       .  A
C145        H152   1.084       .  S
C146        S148   1.805       .  S
S147        H150   1.406       .  S
S148        H149   1.406       .  S
C153        C154   1.403       .  A
C153        C382   1.415       .  A
C154        C155   1.399       .  A
C154        H163   1.082       .  S
C155        C156   1.415       .  A
C155        S159   1.802       .  S
C156        C381   1.403       .  A
C157        C158   1.399       .  A
C157        C380   1.403   1_554  A
C157        H164   1.082       .  S
C158        C377   1.415       .  A
C158        S160   1.802       .  S
S159        H162   1.407       .  S
S160        H161   1.407       .  S
C165        C166   1.402       .  A
C165        C394   1.413       .  A
C166        C167   1.398       .  A
C166        H175   1.084       .  S
C167        C168   1.413       .  A
C167        S171   1.802       .  S
C168        C393   1.402       .  A
C169        C170   1.398       .  A
C169        C392   1.402   1_554  A
C169        H176   1.084       .  S
C170        C389   1.413       .  A
C170        S172   1.802       .  S
S171        H174   1.406       .  S
S172        H173   1.406       .  S
C177        C178   1.404       .  A
C177        C182   1.414       .  A
C178        C179   1.398       .  A
C178        H187   1.084       .  S
C179        C180   1.414       .  A
C179        S183   1.804       .  S
C180        C181   1.404       .  A
C181        C182   1.398       .  A
C181        H188   1.084       .  S
C182        S184   1.804       .  S
S183        H186   1.406       .  S
S184        H185   1.406       .  S
C189        C190   1.404       .  A
C189        C194   1.414       .  A
C190        C191   1.398       .  A
C190        H199   1.084       .  S
C191        C192   1.414       .  A
C191        S195   1.804       .  S
C192        C193   1.404       .  A
C193        C194   1.398       .  A
C193        H200   1.084       .  S
C194        S196   1.804       .  S
S195        H198   1.406       .  S
S196        H197   1.406       .  S
C201        C202   1.403       .  A
C201        C430   1.413       .  A
C202        C203   1.400       .  A
C202        H211   1.084       .  S
C203        C204   1.413       .  A
C203        S207   1.803       .  S
C204        C429   1.403       .  A
C205        C206   1.400       .  A
C205        C428   1.403   1_554  A
C205        H212   1.084       .  S
C206        C425   1.413       .  A
C206        S208   1.803       .  S
S207        H210   1.406       .  S
S208        H209   1.406       .  S
C213        C218   1.413       .  A
C213        C438   1.403       .  A
C214        C215   1.400       .  A
C214        C437   1.403   1_554  A
C214        H223   1.084       .  S
C215        C440   1.413       .  A
C215        S219   1.803       .  S
C216        C217   1.403       .  A
C216        C439   1.413       .  A
C217        C218   1.400       .  A
C217        H224   1.084       .  S
C218        S220   1.803       .  S
S219        H222   1.406       .  S
S220        H221   1.406       .  S
O225        C235   1.265       .  A
O226        C236   1.265       .  A
O226        V233   1.900   1_564  S
O227        C237   1.263       .  A
O227        V233   1.898   1_565  S
O228        C238   1.263       .  A
O229        C238   1.263       .  A
O230        C237   1.263       .  A
O230        V234   1.898   1_566  S
O232        V234   1.900       .  S
V233        V234   2.088   1_556  T
C236        C273   1.481       .  S
C237        C252   1.463       .  S
C238        C251   1.461       .  S
O239        C249   1.265       .  A
O239        V247   1.899       .  S
O240        C250   1.265       .  A
O240        V247   1.899   1_545  S
O241        C251   1.263       .  A
O241        V247   1.896   1_545  S
O242        C252   1.263       .  A
O242        V247   1.898       .  S
O243        C252   1.263       .  A
O243        V248   1.897       .  S
O244        C251   1.263       .  A
O244        V248   1.897   1_545  S
O245        C250   1.265       .  A
O245        V248   1.898   1_545  S
O246        C249   1.265       .  A
O246        V248   1.898       .  S
V247        V248   2.088       .  T
C249        C282   1.479       .  S
C250        C264   1.479       .  S
C253        C437   1.477       .  S
C253        C254   1.402       .  A
C253        C258   1.403       .  A
C254        C255   1.406       .  A
C254        H259   1.083       .  S
C255        C256   1.406       .  A
C256        C257   1.402       .  A
C256        H260   1.084       .  S
C257        C425   1.477   1_556  S
C257        C258   1.403       .  A
C258        H261   1.084       .  S
C262        C416   1.481       .  S
C262        C263   1.403       .  A
C262        C267   1.403       .  A
C263        C264   1.404       .  A
C263        H268   1.083       .  S
C264        C265   1.404       .  A
C265        C266   1.403       .  A
C265        H269   1.083       .  S
C266        C404   1.481       .  S
C266        C267   1.403       .  A
C267        H270   1.084       .  S
C271        C389   1.477       .  S
C271        C272   1.402       .  A
C271        C276   1.402       .  A
C272        C273   1.405       .  A
C272        H277   1.083       .  S
C273        C274   1.405       .  A
C274        C275   1.406       .  A
C274        H278   1.083       .  S
C275        C380   1.486   1_554  S
C275        C276   1.404       .  A
C276        H279   1.084   1_554  S
C280        C365   1.478       .  S
C280        C281   1.401       .  A
C280        C285   1.401       .  A
C281        C282   1.404       .  A
C281        H286   1.083       .  S
C282        C283   1.405       .  A
C283        C284   1.405       .  A
C283        H287   1.083       .  S
C284        C353   1.487       .  S
C284        C285   1.404       .  A
C285        H288   1.084       .  S
C289        C392   1.477       .  S
C289        C738   1.402       .  A
C289        C294   1.402       .  A
C290        C737   1.402   1_455  A
C290        C291   1.404       .  A
C290        H295   1.084   1_456  S
C291        C377   1.486   1_556  S
C291        C292   1.406       .  A
C292        C293   1.405       .  A
C292        H296   1.083       .  S
C293        C742   1.405   1_455  A
C294        C741   1.405       .  A
C294        H297   1.083       .  S
C298        C368   1.478       .  S
C298        C299   1.401       .  A
C298        C751   1.401       .  A
C299        C748   1.404       .  A
C299        H304   1.083       .  S
C300        C350   1.479       .  S
C300        C747   1.404   1_455  A
C300        C301   1.405       .  A
C301        C302   1.405       .  A
C301        H305   1.083       .  S
C302        C356   1.487       .  S
C302        C303   1.404       .  A
C303        C746   1.401   1_455  A
C303        H306   1.084   1_455  S
C307        C428   1.477   1_554  S
C307        C308   1.402       .  A
C307        C312   1.403       .  A
C308        C757   1.406       .  A
C308        H313   1.084       .  S
C309        C756   1.406   1_455  A
C309        C310   1.406       .  A
C310        C311   1.402       .  A
C310        H314   1.083       .  S
C311        C440   1.477       .  S
C311        C760   1.403       .  A
C312        C759   1.403       .  A
C312        H315   1.084       .  S
C316        C401   1.481       .  S
C316        C765   1.403       .  A
C316        C321   1.403       .  A
C317        C764   1.403   1_455  A
C317        C318   1.403       .  A
C317        H322   1.084       .  S
C318        C413   1.481       .  S
C318        C319   1.403       .  A
C319        C320   1.404       .  A
C319        H323   1.083       .  S
C320        C349   1.479       .  S
C320        C769   1.404   1_455  A
C321        C768   1.404       .  A
C321        H324   1.083       .  S
O325        C335   1.265       .  A
O325        V333   1.900       .  S
O327        C337   1.263       .  A
O328        C338   1.263       .  A
O328        V333   1.897       .  S
O329        C786   1.263       .  A
O329        V334   1.898       .  S
O330        C785   1.263       .  A
O331        C784   1.265       .  A
O331        V334   1.900       .  S
O332        C559   1.265       .  A
V333        V782   2.088   1_455  T
V334        V781   2.088       .  T
C335        O556   1.265   1_455  A
C336        O779   1.265   1_455  A
C337        O778   1.263   1_455  A
C337        C352   1.461       .  S
C338        O777   1.263   1_455  A
C338        C351   1.462       .  S
O339        C797   1.265       .  A
O339        V347   1.898       .  S
O340        C798   1.265       .  A
O340        V347   1.898       .  S
O341        C799   1.263       .  A
O341        V347   1.897       .  S
O342        C800   1.263       .  A
O342        V347   1.897       .  S
O343        C352   1.263       .  A
O343        V348   1.896       .  S
O344        C351   1.263       .  A
O344        V348   1.898       .  S
O345        C350   1.265       .  A
O345        V348   1.899       .  S
O346        C349   1.265       .  A
O346        V348   1.899       .  S
V347        V796   2.088       .  T
V348        V795   2.088   1_455  T
C349        O787   1.265   1_455  A
C350        O788   1.265   1_455  A
C351        O789   1.263   1_455  A
C352        O790   1.263   1_455  A
C353        C354   1.403       .  A
C353        C358   1.415       .  A
C354        C355   1.398       .  A
C354        H363   1.082       .  S
C355        C356   1.415       .  A
C355        S359   1.801       .  S
C356        C357   1.403       .  A
C357        C358   1.398       .  A
C357        H364   1.082       .  S
C358        S360   1.801       .  S
S359        H362   1.407       .  S
S360        H361   1.407       .  S
C365        C366   1.404       .  A
C365        C370   1.413       .  A
C366        C367   1.398       .  A
C366        H375   1.084       .  S
C367        C368   1.413       .  A
C367        S371   1.805       .  S
C368        C369   1.404       .  A
C369        C370   1.398       .  A
C369        H376   1.084       .  S
C370        S372   1.805       .  S
S371        H374   1.406       .  S
S372        H373   1.406       .  S
C377        C378   1.403   1_554  A
C378        C379   1.399       .  A
C378        H387   1.082       .  S
C379        C380   1.415       .  A
C379        S383   1.802       .  S
C381        C382   1.399       .  A
C381        H388   1.082       .  S
C382        S384   1.802       .  S
S383        H386   1.407       .  S
S384        H385   1.407       .  S
C389        C390   1.402   1_554  A
C390        C391   1.398       .  A
C390        H399   1.084       .  S
C391        C392   1.413       .  A
C391        S395   1.802       .  S
C393        C394   1.398       .  A
C393        H400   1.084       .  S
C394        S396   1.802       .  S
S395        H398   1.406       .  S
S396        H397   1.406       .  S
C401        C402   1.404       .  A
C401        C406   1.414       .  A
C402        C403   1.398       .  A
C402        H411   1.084       .  S
C403        C404   1.414       .  A
C403        S407   1.804       .  S
C404        C405   1.404       .  A
C405        C406   1.398       .  A
C405        H412   1.084       .  S
C406        S408   1.804       .  S
S407        H410   1.406       .  S
S408        H409   1.406       .  S
C413        C414   1.404       .  A
C413        C418   1.414       .  A
C414        C415   1.398       .  A
C414        H423   1.084       .  S
C415        C416   1.414       .  A
C415        S419   1.804       .  S
C416        C417   1.404       .  A
C417        C418   1.398       .  A
C417        H424   1.084       .  S
C418        S420   1.804       .  S
S419        H422   1.406       .  S
S420        H421   1.406       .  S
C425        C426   1.403   1_554  A
C426        C427   1.400       .  A
C426        H435   1.084       .  S
C427        C428   1.413       .  A
C427        S431   1.803       .  S
C429        C430   1.400       .  A
C429        H436   1.084       .  S
C430        S432   1.803       .  S
S431        H434   1.406       .  S
S432        H433   1.406       .  S
C437        C442   1.413       .  A
C438        C439   1.400       .  A
C438        H447   1.084       .  S
C439        S443   1.803       .  S
C440        C441   1.403   1_554  A
C441        C442   1.400       .  A
C441        H448   1.084       .  S
C442        S444   1.803       .  S
S443        H446   1.406       .  S
S444        H445   1.406       .  S
O449        C459   1.265       .  A
O449        V681   1.900       .  S
O450        C460   1.265       .  A
O450        V457   1.900   1_565  S
O451        C461   1.263       .  A
O451        V457   1.898   1_565  S
O452        C462   1.263       .  A
O452        V681   1.897   1_554  S
O453        C462   1.263       .  A
O453        V682   1.897       .  S
O454        C461   1.263       .  A
O454        V458   1.898   1_565  S
O455        C684   1.265       .  A
O455        V682   1.900   1_565  S
O456        C683   1.265       .  A
O456        V458   1.900       .  S
V457        O673   1.900       .  S
V457        O676   1.897       .  S
V457        V458   2.088       .  T
V458        O677   1.897       .  S
V458        O679   1.900   1_545  S
C459        O680   1.265   1_556  A
C459        C703   1.481       .  S
C460        O679   1.265       .  A
C460        C497   1.481       .  S
C461        C476   1.463       .  S
C462        C475   1.461       .  S
O463        C473   1.265       .  A
O463        V471   1.899       .  S
O464        C474   1.265       .  A
O464        V471   1.899   1_545  S
O465        C475   1.263       .  A
O465        V471   1.896   1_545  S
O466        C476   1.263       .  A
O466        V471   1.898       .  S
O467        C476   1.263       .  A
O467        V472   1.897       .  S
O468        C475   1.263       .  A
O468        V472   1.897   1_545  S
O469        C474   1.265       .  A
O469        V472   1.898   1_545  S
O470        C473   1.265       .  A
O470        V472   1.898       .  S
V471        V472   2.088       .  T
C473        C506   1.479       .  S
C474        C488   1.479       .  S
C477        C661   1.477       .  S
C477        C478   1.402       .  A
C477        C482   1.403       .  A
C478        C479   1.406       .  A
C478        H483   1.083       .  S
C479        C683   1.481       .  S
C479        C480   1.406       .  A
C480        C481   1.402       .  A
C480        H484   1.084       .  S
C481        C649   1.477       .  S
C481        C482   1.403       .  A
C482        H485   1.084       .  S
C486        C640   1.481       .  S
C486        C487   1.403       .  A
C486        C491   1.403       .  A
C487        C488   1.404       .  A
C487        H492   1.083       .  S
C488        C489   1.404       .  A
C489        C490   1.403       .  A
C489        H493   1.083       .  S
C490        C628   1.481       .  S
C490        C491   1.403       .  A
C491        H494   1.084       .  S
C495        C613   1.477       .  S
C495        C496   1.402       .  A
C495        C500   1.402       .  A
C496        C497   1.405       .  A
C496        H501   1.083       .  S
C497        C498   1.405       .  A
C498        C499   1.406       .  A
C498        H502   1.083       .  S
C499        C604   1.486       .  S
C499        C500   1.404       .  A
C500        H503   1.084       .  S
C504        C589   1.478       .  S
C504        C505   1.401       .  A
C504        C509   1.401       .  A
C505        C506   1.404       .  A
C505        H510   1.083       .  S
C506        C507   1.405       .  A
C507        C508   1.405       .  A
C507        H511   1.083       .  S
C508        C577   1.487       .  S
C508        C509   1.404       .  A
C509        H512   1.084       .  S
C513        C616   1.477       .  S
C513        C518   1.402       .  A
C514        C515   1.404       .  A
C514        H519   1.084       .  S
C515        C601   1.486       .  S
C515        C516   1.406       .  A
C516        C517   1.405       .  A
C516        H520   1.083       .  S
C517        C783   1.481       .  S
C518        H521   1.083       .  S
C522        C592   1.478       .  S
C522        C523   1.401       .  A
C523        H528   1.083       .  S
C524        C574   1.479       .  S
C524        C525   1.405       .  A
C525        C526   1.405       .  A
C525        H529   1.083       .  S
C526        C580   1.487       .  S
C526        C527   1.404       .  A
C527        H530   1.084       .  S
C531        C652   1.477       .  S
C531        C532   1.402       .  A
C531        C536   1.403   1_655  A
C532        H537   1.084       .  S
C533        C784   1.481       .  S
C533        C534   1.406       .  A
C534        C535   1.402       .  A
C534        H538   1.083       .  S
C535        C664   1.477       .  S
C536        H539   1.084       .  S
C540        C625   1.481       .  S
C540        C545   1.403       .  A
C541        C542   1.403       .  A
C541        H546   1.084       .  S
C542        C637   1.481       .  S
C542        C543   1.403       .  A
C543        C544   1.404       .  A
C543        H547   1.083       .  S
C544        C573   1.479       .  S
C545        H548   1.083       .  S
O549        C559   1.265       .  A
O549        V557   1.900       .  S
O550        C784   1.265       .  A
O550        V781   1.900       .  S
O551        C561   1.263       .  A
O551        V781   1.897       .  S
O552        C562   1.263       .  A
O552        V557   1.897   1_554  S
O553        V558   1.898       .  S
O554        V782   1.897       .  S
O555        V558   1.900       .  S
O556        V782   1.900       .  S
V557        O774   1.900       .  S
V557        O775   1.897       .  S
V558        O778   1.897   1_554  S
V558        O780   1.900   1_554  S
C559        C741   1.481       .  S
C560        O774   1.265   1_554  A
C560        C757   1.481       .  S
C561        C576   1.461       .  S
C562        C575   1.462       .  S
O563        V571   1.898       .  S
O564        V571   1.898       .  S
O565        V571   1.897       .  S
O566        V571   1.897       .  S
O567        C576   1.263       .  A
O567        V572   1.896       .  S
O568        C575   1.263       .  A
O568        V572   1.898       .  S
O569        C574   1.265       .  A
O569        V572   1.899       .  S
O570        C573   1.265       .  A
O570        V572   1.899       .  S
C577        C578   1.403       .  A
C577        C582   1.415       .  A
C578        C579   1.398       .  A
C578        H587   1.082       .  S
C579        C580   1.415       .  A
C579        S583   1.801       .  S
C580        C581   1.403       .  A
C581        C582   1.398       .  A
C581        H588   1.082       .  S
C582        S584   1.801       .  S
S583        H586   1.407       .  S
S584        H585   1.407       .  S
C589        C590   1.404       .  A
C589        C594   1.413       .  A
C590        C591   1.398       .  A
C590        H599   1.084       .  S
C591        C592   1.413       .  A
C591        S595   1.805       .  S
C592        C593   1.404       .  A
C593        C594   1.398       .  A
C593        H600   1.084       .  S
C594        S596   1.805       .  S
S595        H598   1.406       .  S
S596        H597   1.406       .  S
C601        C602   1.403       .  A
C601        C830   1.415       .  A
C602        C603   1.399       .  A
C602        H611   1.082       .  S
C603        C604   1.415       .  A
C603        S607   1.802       .  S
C604        C829   1.403       .  A
C605        C828   1.403   1_554  A
C605        C606   1.399       .  A
C605        H612   1.082       .  S
C606        C825   1.415       .  A
C606        S608   1.802       .  S
S607        H610   1.407       .  S
S608        H609   1.407       .  S
C613        C614   1.402       .  A
C613        C842   1.413       .  A
C614        C615   1.398       .  A
C614        H623   1.084       .  S
C615        C616   1.413       .  A
C615        S619   1.802       .  S
C616        C841   1.402       .  A
C617        C840   1.402   1_554  A
C617        C618   1.398       .  A
C617        H624   1.084       .  S
C618        C837   1.413       .  A
C618        S620   1.802       .  S
S619        H622   1.406       .  S
S620        H621   1.406       .  S
C625        C626   1.404       .  A
C625        C630   1.414       .  A
C626        C627   1.398       .  A
C626        H635   1.084       .  S
C627        C628   1.414       .  A
C627        S631   1.804       .  S
C628        C629   1.404       .  A
C629        C630   1.398       .  A
C629        H636   1.084       .  S
C630        S632   1.804       .  S
S631        H634   1.406       .  S
S632        H633   1.406       .  S
C637        C638   1.404       .  A
C637        C642   1.414       .  A
C638        C639   1.398       .  A
C638        H647   1.084       .  S
C639        C640   1.414       .  A
C639        S643   1.804       .  S
C640        C641   1.404       .  A
C641        C642   1.398       .  A
C641        H648   1.084       .  S
C642        S644   1.804       .  S
S643        H646   1.406       .  S
S644        H645   1.406       .  S
C649        C650   1.403       .  A
C649        C878   1.413       .  A
C650        C651   1.400       .  A
C650        H659   1.084       .  S
C651        C652   1.413       .  A
C651        S655   1.803       .  S
C652        C877   1.403       .  A
C653        C876   1.403   1_554  A
C653        C654   1.400       .  A
C653        H660   1.084       .  S
C654        C873   1.413       .  A
C654        S656   1.803       .  S
S655        H658   1.406       .  S
S656        H657   1.406       .  S
C661        C886   1.403       .  A
C661        C666   1.413       .  A
C662        C885   1.403   1_554  A
C662        C663   1.400       .  A
C662        H671   1.084       .  S
C663        C888   1.413       .  A
C663        S667   1.803       .  S
C664        C887   1.413       .  A
C664        C665   1.403       .  A
C665        C666   1.400       .  A
C665        H672   1.084       .  S
C666        S668   1.803       .  S
S667        H670   1.406       .  S
S668        H669   1.406       .  S
O673        C683   1.265       .  A
O674        C684   1.265       .  A
O674        V681   1.900   1_564  S
O675        C685   1.263       .  A
O675        V681   1.898   1_565  S
O676        C686   1.263       .  A
O677        C686   1.263       .  A
O678        C685   1.263       .  A
O678        V682   1.898   1_566  S
O680        V682   1.900       .  S
V681        V682   2.088   1_556  T
C684        C721   1.481       .  S
C685        C700   1.463       .  S
C686        C699   1.461       .  S
O687        C697   1.265       .  A
O687        V695   1.899       .  S
O688        C698   1.265       .  A
O688        V695   1.899   1_545  S
O689        C699   1.263       .  A
O689        V695   1.896   1_545  S
O690        C700   1.263       .  A
O690        V695   1.898       .  S
O691        C700   1.263       .  A
O691        V696   1.897       .  S
O692        C699   1.263       .  A
O692        V696   1.897   1_545  S
O693        C698   1.265       .  A
O693        V696   1.898   1_545  S
O694        C697   1.265       .  A
O694        V696   1.898       .  S
V695        V696   2.088       .  T
C697        C730   1.479       .  S
C698        C712   1.479       .  S
C701        C885   1.477       .  S
C701        C702   1.402       .  A
C701        C706   1.403       .  A
C702        C703   1.406       .  A
C702        H707   1.083       .  S
C703        C704   1.406       .  A
C704        C705   1.402       .  A
C704        H708   1.084       .  S
C705        C873   1.477   1_556  S
C705        C706   1.403       .  A
C706        H709   1.084       .  S
C710        C864   1.481       .  S
C710        C711   1.403       .  A
C710        C715   1.403       .  A
C711        C712   1.404       .  A
C711        H716   1.083       .  S
C712        C713   1.404       .  A
C713        C714   1.403       .  A
C713        H717   1.083       .  S
C714        C852   1.481       .  S
C714        C715   1.403       .  A
C715        H718   1.084       .  S
C719        C837   1.477       .  S
C719        C720   1.402       .  A
C719        C724   1.402       .  A
C720        C721   1.405       .  A
C720        H725   1.083       .  S
C721        C722   1.405       .  A
C722        C723   1.406       .  A
C722        H726   1.083       .  S
C723        C828   1.486   1_554  S
C723        C724   1.404       .  A
C724        H727   1.084   1_554  S
C728        C813   1.478       .  S
C728        C729   1.401       .  A
C728        C733   1.401       .  A
C729        C730   1.404       .  A
C729        H734   1.083       .  S
C730        C731   1.405       .  A
C731        C732   1.405       .  A
C731        H735   1.083       .  S
C732        C801   1.487       .  S
C732        C733   1.404       .  A
C733        H736   1.084       .  S
C737        C840   1.477       .  S
C737        C742   1.402       .  A
C738        C739   1.404       .  A
C738        H743   1.084   1_556  S
C739        C825   1.486   1_556  S
C739        C740   1.406       .  A
C740        C741   1.405       .  A
C740        H744   1.083       .  S
C742        H745   1.083       .  S
C746        C816   1.478       .  S
C746        C747   1.401       .  A
C747        H752   1.083       .  S
C748        C798   1.479       .  S
C748        C749   1.405       .  A
C749        C750   1.405       .  A
C749        H753   1.083       .  S
C750        C804   1.487       .  S
C750        C751   1.404       .  A
C751        H754   1.084       .  S
C755        C876   1.477   1_554  S
C755        C756   1.402       .  A
C755        C760   1.403   1_655  A
C756        H761   1.084       .  S
C757        C758   1.406       .  A
C758        C759   1.402       .  A
C758        H762   1.083       .  S
C759        C888   1.477       .  S
C760        H763   1.084       .  S
C764        C849   1.481       .  S
C764        C769   1.403       .  A
C765        C766   1.403       .  A
C765        H770   1.084       .  S
C766        C861   1.481       .  S
C766        C767   1.403       .  A
C767        C768   1.404       .  A
C767        H771   1.083       .  S
C768        C797   1.479       .  S
C769        H772   1.083       .  S
O773        C783   1.265       .  A
O773        V781   1.900       .  S
O775        C785   1.263       .  A
O776        C786   1.263       .  A
O776        V781   1.897       .  S
O777        V782   1.898       .  S
O779        V782   1.900       .  S
C785        C800   1.461       .  S
C786        C799   1.462       .  S
O787        V795   1.898       .  S
O788        V795   1.898       .  S
O789        V795   1.897       .  S
O790        V795   1.897       .  S
O791        C800   1.263       .  A
O791        V796   1.896       .  S
O792        C799   1.263       .  A
O792        V796   1.898       .  S
O793        C798   1.265       .  A
O793        V796   1.899       .  S
O794        C797   1.265       .  A
O794        V796   1.899       .  S
C801        C802   1.403       .  A
C801        C806   1.415       .  A
C802        C803   1.398       .  A
C802        H811   1.082       .  S
C803        C804   1.415       .  A
C803        S807   1.801       .  S
C804        C805   1.403       .  A
C805        C806   1.398       .  A
C805        H812   1.082       .  S
C806        S808   1.801       .  S
S807        H810   1.407       .  S
S808        H809   1.407       .  S
C813        C814   1.404       .  A
C813        C818   1.413       .  A
C814        C815   1.398       .  A
C814        H823   1.084       .  S
C815        C816   1.413       .  A
C815        S819   1.805       .  S
C816        C817   1.404       .  A
C817        C818   1.398       .  A
C817        H824   1.084       .  S
C818        S820   1.805       .  S
S819        H822   1.406       .  S
S820        H821   1.406       .  S
C825        C826   1.403   1_554  A
C826        C827   1.399       .  A
C826        H835   1.082       .  S
C827        C828   1.415       .  A
C827        S831   1.802       .  S
C829        C830   1.399       .  A
C829        H836   1.082       .  S
C830        S832   1.802       .  S
S831        H834   1.407       .  S
S832        H833   1.407       .  S
C837        C838   1.402   1_554  A
C838        C839   1.398       .  A
C838        H847   1.084       .  S
C839        C840   1.413       .  A
C839        S843   1.802       .  S
C841        C842   1.398       .  A
C841        H848   1.084       .  S
C842        S844   1.802       .  S
S843        H846   1.406       .  S
S844        H845   1.406       .  S
C849        C850   1.404       .  A
C849        C854   1.414       .  A
C850        C851   1.398       .  A
C850        H859   1.084       .  S
C851        C852   1.414       .  A
C851        S855   1.804       .  S
C852        C853   1.404       .  A
C853        C854   1.398       .  A
C853        H860   1.084       .  S
C854        S856   1.804       .  S
S855        H858   1.406       .  S
S856        H857   1.406       .  S
C861        C862   1.404       .  A
C861        C866   1.414       .  A
C862        C863   1.398       .  A
C862        H871   1.084       .  S
C863        C864   1.414       .  A
C863        S867   1.804       .  S
C864        C865   1.404       .  A
C865        C866   1.398       .  A
C865        H872   1.084       .  S
C866        S868   1.804       .  S
S867        H870   1.406       .  S
S868        H869   1.406       .  S
C873        C874   1.403   1_554  A
C874        C875   1.400       .  A
C874        H883   1.084       .  S
C875        C876   1.413       .  A
C875        S879   1.803       .  S
C877        C878   1.400       .  A
C877        H884   1.084       .  S
C878        S880   1.803       .  S
S879        H882   1.406       .  S
S880        H881   1.406       .  S
C885        C890   1.413       .  A
C886        C887   1.400       .  A
C886        H895   1.084       .  S
C887        S891   1.803       .  S
C888        C889   1.403   1_554  A
C889        C890   1.400       .  A
C889        H896   1.084       .  S
C890        S892   1.803       .  S
S891        H894   1.406       .  S
S892        H893   1.406       .  S
