geometry optimzed in LAMMPS
_audit_creation_date              2020-12-01 
_audit_creation_method            'lammps2cif' 
_symmetry_space_group_name_H-M    'P1' 
_symmetry_Int_Tables_number       1 
_symmetry_cell_setting            triclinic 
loop_ 
_symmetry_equiv_pos_as_xyz 
  x,y,z 
_cell_length_a                    26.82666822 
_cell_length_b                    26.0695248199205 
_cell_length_c                    22.88122547847154 
_cell_angle_alpha                 91.60165554146913 
_cell_angle_beta                  89.75722912381985 
_cell_angle_gamma                 120.62820786113046 
loop_ 
_atom_site_label 
_atom_site_type_symbol 
_atom_site_fract_x 
_atom_site_fract_y 
_atom_site_fract_z 
_atom_site_charge 
O1          O  0.42892708  0.16043449  0.30202735    -0.81900
C2          C  0.23708307  0.11110661  0.16825664     0.97500
O3          O  0.26612247  0.08733951  0.18120882    -0.71000
O4          O  0.35984216  0.08694989  0.20668498    -0.74600
Al5        Al  0.30475169  0.09501473  0.25244410     1.49000
C6          C  0.40169273  0.12319413  0.17636063     0.92700
O7          O  0.42991648  0.28079540  0.20766440    -0.80800
O8          O  0.35447856  0.27606920  0.30339428    -0.74400
Al9        Al  0.41986280  0.21563626  0.25467509     1.90100
O10         O  0.34167644  0.25657117  0.18420429    -0.73400
O11         O  0.25836039  0.17426837  0.31769739    -0.73300
O12         O  0.24371948  0.15646112  0.19694730    -0.78900
O13         O  0.23976781  0.08399566  0.29745869    -0.77200
O14         O  0.34242548  0.17453478  0.25273352    -1.13300
O15         O  0.34001693  0.09326063  0.32371822    -0.72500
C16         C  0.39385751  0.11594580  0.33118712     0.98200
C17         C  0.39545291  0.28873710  0.17710490     0.94600
Al18       Al  0.30301906  0.21257704  0.25083333     1.55600
O19         O  0.42459809  0.17866271  0.18473710    -0.77100
C20         C  0.22796844  0.11900432  0.32493301     0.98800
C21         C  0.39787220  0.28578589  0.33379408     0.93700
O22         O  0.42323305  0.25693399  0.32480729    -0.82400
C23         C  0.49762404  0.50570749  0.03217609    -0.02600
C24         C  0.99811224  0.50336146  0.45625930    -0.02600
C25         C  0.48625117  0.12065202  0.14310568    -0.05900
C26         C  0.42815858  0.10049195  0.13513436     0.00100
C27         C  0.39812271  0.06119633  0.08856874    -0.08500
C28         C  0.42618753  0.03670535  0.05658740    -0.05900
C29         C  0.48446615  0.05185557  0.06445499     0.00100
C30         C  0.51752311  0.10418540  0.10520478    -0.08400
C31         C  0.05131043  0.09102705  0.17746302     0.62000
H32         H  0.50860726  0.15347470  0.17830995     0.12700
H33         H  0.40139734  0.00549205  0.02407859     0.12700
C34         C  0.33666129  0.04516737  0.07272171     0.62200
F35         F  0.03831919  0.10815796  0.23061664    -0.23000
F36         F  0.10555938  0.13611530  0.16242928    -0.20300
F37         F  0.05139998  0.04003336  0.18931439    -0.20000
F38         F  0.33479136  0.09670044  0.06570217    -0.20000
F39         F  0.29906886  0.01256098  0.11654379    -0.20400
F40         F  0.31731796  0.01156935  0.02108403    -0.23000
C41         C  0.15274294  0.01931807  0.13231706    -0.05900
C42         C  0.18895266  0.07981618  0.12504623     0.00100
C43         C  0.17110216  0.10843505  0.08704626    -0.08500
C44         C  0.11356029  0.07723337  0.06588409    -0.05900
C45         C  0.07019347  0.01863501  0.08138919     0.00100
C46         C  0.09264673  0.98991875  0.12001168    -0.08400
C47         C  0.06171928  0.93402100  0.15743118     0.62000
H48         H  0.17039893  0.99706742  0.15692247     0.12700
H49         H  0.10275046  0.10161815  0.03828301     0.12700
C50         C  0.21141684  0.17143854  0.06697501     0.62200
F51         F  0.06343220  0.88747278  0.12911828    -0.23000
F52         F  0.00660767  0.91763181  0.17277152    -0.20300
F53         F  0.08971881  0.94332081  0.21094972    -0.20000
F54         F  0.26855285  0.19224848  0.08219528    -0.20600
F55         F  0.19480070  0.20953225  0.09120092    -0.20400
F56         F  0.20845969  0.17248672  0.00672903    -0.23000
C57         C  0.38754540  0.36831805  0.12915922    -0.05900
C58         C  0.41750210  0.33798449  0.13461810     0.00100
C59         C  0.46458761  0.35326506  0.09740728    -0.08500
C60         C  0.48528577  0.40446687  0.06350178    -0.05900
C61         C  0.45768648  0.43902673  0.05837309     0.00100
C62         C  0.40009867  0.41031259  0.08529032    -0.08400
C63         C  0.34397591  0.40661222  0.06453092     0.62000
H64         H  0.34920514  0.35401278  0.15558608     0.12700
H65         H  0.52782668  0.42142371  0.04623121     0.12700
C66         C  0.49380093  0.31648828  0.09381406     0.62200
F67         F  0.29780387  0.34847570  0.06771761    -0.23000
F68         F  0.34358717  0.42023694  0.00721023    -0.20300
F69         F  0.33136585  0.44122494  0.10110327    -0.20000
F70         F  0.45235819  0.25674638  0.08602139    -0.20000
F71         F  0.52510014  0.32472860  0.14455289    -0.20400
F72         F  0.53129332  0.33230510  0.04712783    -0.23000
C73         C  0.46300677  0.12637331  0.40920107    -0.05900
C74         C  0.41666332  0.08909028  0.37234187     0.00100
C75         C  0.39342945  0.02738959  0.37557730    -0.08500
C76         C  0.41959762  0.00620327  0.41342173    -0.05900
C77         C  0.47422174  0.04212086  0.44406009     0.00100
C78         C  0.48934105  0.10511578  0.44784754    -0.08400
C79         C  0.02825008  0.14059941  0.46916403     0.62000
H80         H  0.47739494  0.17359398  0.40954470     0.12700
H81         H  0.39180356  0.45830763  0.43793029     0.12700
C82         C  0.34216246  0.98297715  0.33747495     0.62200
F83         F  0.06017763  0.18754129  0.43252424    -0.23000
F84         F  0.06469670  0.12404025  0.49058862    -0.20300
F85         F  0.00802256  0.16112148  0.51438157    -0.20000
F86         F  0.34896177  0.48519052  0.29341115    -0.20000
F87         F  0.29273730  0.98330640  0.35419741    -0.20400
F88         F  0.32596788  0.41838703  0.36270425    -0.23000
C89         C  0.15923797  0.04118568  0.39176121    -0.05900
C90         C  0.17565215  0.09382310  0.36274207     0.00100
C91         C  0.13714081  0.11529027  0.36257535    -0.08500
C92         C  0.08420466  0.08320239  0.39164322    -0.05900
C93         C  0.06471178  0.02971430  0.42327515     0.00100
C94         C  0.10453279  0.00670155  0.41879368    -0.08400
C95         C  0.09593451  0.94678838  0.43720309     0.62000
H96         H  0.18917094  0.02475188  0.39040103     0.12700
H97         H  0.05598137  0.09879925  0.38295634     0.12700
C98         C  0.14923785  0.16964358  0.32780126     0.62200
F99         F  0.10818994  0.92039045  0.39025294    -0.23000
F100        F  0.03623467  0.40798934  0.45989672    -0.20300
F101        F  0.10767063  0.95153612  0.01638968    -0.20000
F102        F  0.15967828  0.16146845  0.27014566    -0.20000
F103        F  0.19672634  0.22020366  0.35144579    -0.20400
F104        F  0.10344139  0.17988112  0.32796003    -0.23000
C105        C  0.46760030  0.38989545  0.35109644    -0.05900
C106        C  0.42441202  0.33753701  0.37419969     0.00100
C107        C  0.40107936  0.33931883  0.42854898    -0.08500
C108        C  0.42713000  0.39370501  0.46112564    -0.05900
C109        C  0.47652543  0.44711764  0.44188763     0.00100
C110        C  0.48644675  0.44504805  0.37955880    -0.08400
C111        C  0.98702172  0.47893645  0.31120777     0.62000
H112        H  0.48027911  0.38845245  0.30616009     0.12700
H113        H  0.40304534  0.39578420  0.49754301     0.12700
C114        C  0.34728691  0.28462223  0.45008451     0.62200
F115        F  0.94917615  0.45194656  0.26430566    -0.23000
F116        F  0.04267661  0.49945719  0.29267527    -0.20300
F117        F  0.98166954  0.52695726  0.32590111    -0.20000
F118        F  0.35663978  0.23716284  0.45138836    -0.20000
F119        F  0.30139390  0.27018626  0.41272638    -0.20400
F120        F  0.33220863  0.29382280  0.50551900    -0.23000
O121        O  0.40753749  0.14131453  0.80665752    -0.81900
C122        C  0.22018046  0.08655106  0.66651943     0.97500
O123        O  0.24901865  0.06286841  0.68069206    -0.71000
O124        O  0.34172035  0.06155001  0.71629739    -0.74600
Al125      Al  0.28534045  0.07463797  0.75490834     1.49000
C126        C  0.38567087  0.09573460  0.68696479     0.92700
O127        O  0.41399517  0.25453709  0.69819453    -0.80800
O128        O  0.34183043  0.26170447  0.78754524    -0.74400
Al129      Al  0.40210383  0.19326323  0.75257726     1.90100
O130        O  0.32607720  0.22764886  0.67025701    -0.73400
O131        O  0.24487557  0.16252758  0.81181473    -0.73300
O132        O  0.22681764  0.13273328  0.69337018    -0.78900
O133        O  0.22011060  0.06951884  0.79583986    -0.77200
O134        O  0.32505615  0.15369320  0.74957923    -1.13300
O135        O  0.31750725  0.07788853  0.82933316    -0.72500
C136        C  0.37099212  0.10041005  0.83852463     0.98200
C137        C  0.38008698  0.25891620  0.66304221     0.94600
Al138      Al  0.28784717  0.19296203  0.74143726     1.55600
O139        O  0.40690576  0.15113362  0.68839337    -0.77100
C140        C  0.21331274  0.10816394  0.82355366     0.98800
C141        C  0.38363528  0.27155517  0.82064218     0.93700
O142        O  0.40576961  0.23935290  0.81815406    -0.82400
C143        C  0.50585639  0.49856524  0.55802736    -0.02600
C144        C  0.00745715  0.50307682  0.97094906    -0.02600
C145        C  0.46071450  0.07002640  0.67752817    -0.05900
C146        C  0.41488114  0.07196202  0.65224192     0.00100
C147        C  0.40432002  0.06117814  0.59275032    -0.08500
C148        C  0.43561243  0.04049965  0.56193344    -0.05900
C149        C  0.48506618  0.04059794  0.58311733     0.00100
C150        C  0.50198278  0.06555732  0.64272292    -0.08400
C151        C  0.08045703  0.13915846  0.61832268     0.62000
H152        H  0.46860929  0.08125725  0.72387355     0.12700
H153        H  0.41652086  0.01992491  0.52232183     0.12700
C154        C  0.35612468  0.06570740  0.56339503     0.62200
F155        F  0.08497381  0.19452254  0.62374589    -0.23000
F156        F  0.11883004  0.14647705  0.57582010    -0.20300
F157        F  0.10086454  0.13021693  0.66996758    -0.20000
F158        F  0.36631964  0.12298067  0.57163047    -0.20000
F159        F  0.30354467  0.02583505  0.58778819    -0.20400
F160        F  0.35265666  0.05340240  0.50382847    -0.23000
C161        C  0.11891383  0.01792841  0.65145714    -0.05900
C162        C  0.17113959  0.05533207  0.62546132     0.00100
C163        C  0.17134846  0.07486133  0.56902309    -0.08500
C164        C  0.11796463  0.05434202  0.53989536    -0.05900
C165        C  0.06300199  0.01931845  0.56599479     0.00100
C166        C  0.06633316  0.00718231  0.62753897    -0.08400
C167        C  0.02094362  0.98933344  0.67552316     0.62000
H168        H  0.12019592  0.00576079  0.69629724     0.12700
H169        H  0.12162362  0.07932467  0.50305436     0.12700
C170        C  0.22763899  0.12084490  0.54143950     0.62200
F171        F  0.01053068  0.93657737  0.69923600    -0.23000
F172        F  0.96901675  0.98359568  0.66067787    -0.20300
F173        F  0.04377180  0.03332449  0.71892069    -0.20000
F174        F  0.26389112  0.09805913  0.53631630    -0.20600
F175        F  0.25403953  0.17245943  0.57583022    -0.20400
F176        F  0.21944194  0.13596313  0.48635622    -0.23000
C177        C  0.37718531  0.34294107  0.62262642    -0.05900
C178        C  0.40290398  0.30852922  0.62056414     0.00100
C179        C  0.45386427  0.32973132  0.58791157    -0.08500
C180        C  0.48047459  0.38846042  0.56632782    -0.05900
C181        C  0.46373164  0.43097308  0.58107105     0.00100
C182        C  0.41007032  0.40527017  0.61649279    -0.08400
C183        C  0.38504746  0.43342651  0.65904367     0.62000
H184        H  0.33452873  0.32306901  0.64206670     0.12700
H185        H  0.51856720  0.40366007  0.54236385     0.12700
C186        C  0.47811820  0.28965316  0.57267985     0.62200
F187        F  0.36510540  0.40074410  0.70955455    -0.23000
F188        F  0.33759794  0.43160051  0.63349920    -0.20300
F189        F  0.42342367  0.48962197  0.67955055    -0.20000
F190        F  0.49203424  0.27077037  0.62256387    -0.20000
F191        F  0.52774741  0.31853328  0.53955892    -0.20400
F192        F  0.43712116  0.24050674  0.54064835    -0.23000
C193        C  0.44392174  0.11618610  0.91247243    -0.05900
C194        C  0.39259354  0.07643512  0.88323140     0.00100
C195        C  0.36928420  0.01506248  0.88988576    -0.08500
C196        C  0.40396642  0.99620024  0.91627133    -0.05900
C197        C  0.46220026  0.03516970  0.93792541     0.00100
C198        C  0.47839867  0.09777490  0.94091454    -0.08400
C199        C  0.02135040  0.15310620  0.99710809     0.62000
H200        H  0.45889862  0.16343258  0.91046071     0.12700
H201        H  0.38057418  0.44736486  0.91135568     0.12700
C202        C  0.30924131  0.96873524  0.86664484     0.62200
F203        F  0.06121705  0.20162995  0.96593262    -0.23000
F204        F  0.05159707  0.14242848  0.03691818    -0.20300
F205        F  0.98670836  0.16980643  0.02707650    -0.20000
F206        F  0.33382399  0.47985122  0.77289213    -0.20000
F207        F  0.26830728  0.98010177  0.89068663    -0.20400
F208        F  0.31204436  0.40976116  0.83826913    -0.23000
C209        C  0.15272051  0.03538325  0.89820296    -0.05900
C210        C  0.16779459  0.08796598  0.86998836     0.00100
C211        C  0.13762820  0.11717900  0.88507625    -0.08500
C212        C  0.09455820  0.09272632  0.92823983    -0.05900
C213        C  0.06985166  0.03422256  0.95050177     0.00100
C214        C  0.10437312  0.00598822  0.93604100    -0.08400
C215        C  0.09594111  0.94671758  0.95775795     0.62000
H216        H  0.17945244  0.01641224  0.88796594     0.12700
H217        H  0.07871458  0.12012275  0.94181399     0.12700
C218        C  0.14717569  0.17168154  0.85273575     0.62200
F219        F  0.13361489  0.93120460  0.93236580    -0.23000
F220        F  0.04555523  0.39780040  0.93760351    -0.20300
F221        F  0.13421072  0.95635177  0.48226759    -0.20000
F222        F  0.14242254  0.15957314  0.79308600    -0.20000
F223        F  0.20137717  0.21990384  0.86610907    -0.20400
F224        F  0.10655524  0.18747573  0.86708030    -0.23000
C225        C  0.44958572  0.37751458  0.82894692    -0.05900
C226        C  0.41198068  0.32593106  0.85686989     0.00100
C227        C  0.39828946  0.32850348  0.91506404    -0.08500
C228        C  0.42229832  0.38474277  0.94321361    -0.05900
C229        C  0.46447096  0.43972680  0.91849435     0.00100
C230        C  0.47071390  0.43416591  0.85543278    -0.08400
C231        C  0.00634605  0.48600584  0.82637741     0.62000
H232        H  0.45895545  0.37305556  0.78348659     0.12700
H233        H  0.40075175  0.38355974  0.98121338     0.12700
C234        C  0.35781008  0.27181585  0.94687096     0.62200
F235        F  0.96248231  0.46761761  0.78503292    -0.23000
F236        F  0.05583804  0.49219477  0.80081362    -0.20300
F237        F  0.01762007  0.54104798  0.84538712    -0.20000
F238        F  0.37967114  0.23384565  0.94464357    -0.20000
F239        F  0.30370772  0.24358289  0.92045944    -0.20400
F240        F  0.35169262  0.28317570  0.00508664    -0.23000
O241        O  0.42614943  0.65260935  0.30537831    -0.81900
C242        C  0.23570579  0.60271393  0.16610852     0.97500
O243        O  0.26173192  0.57708005  0.18321646    -0.71000
O244        O  0.35794296  0.58083562  0.20757077    -0.74600
Al245      Al  0.30206293  0.58741502  0.25434398     1.49000
C246        C  0.40031135  0.61877628  0.17842965     0.92700
O247        O  0.43053204  0.77612526  0.21357672    -0.80800
O248        O  0.35184420  0.76930955  0.30037078    -0.74400
Al249      Al  0.41731890  0.70843703  0.25885081     1.90100
O250        O  0.34446446  0.74966533  0.18083187    -0.73400
O251        O  0.25342381  0.66856813  0.31210556    -0.73300
O252        O  0.24443735  0.65025866  0.19165330    -0.78900
O253        O  0.23749634  0.57805637  0.30005964    -0.77200
O254        O  0.33990573  0.66705615  0.25349597    -1.13300
O255        O  0.33748333  0.58539689  0.32604292    -0.72500
C256        C  0.39118546  0.60839394  0.33471226     0.98200
C257        C  0.39862425  0.78422471  0.17927151     0.94600
Al258      Al  0.30174380  0.70594492  0.24697632     1.55600
O259        O  0.42392333  0.67389045  0.18929178    -0.77100
C260        C  0.22397618  0.61394515  0.32305467     0.98800
C261        C  0.39334519  0.77801945  0.33346351     0.93700
O262        O  0.41673537  0.74680224  0.32902756    -0.82400
C263        C  0.50321088  0.00634735  0.03504151    -0.02600
C264        C  0.00130454  0.99789287  0.45398092    -0.02600
C265        C  0.48470208  0.61819683  0.14245057    -0.05900
C266        C  0.42669721  0.59882908  0.13481698     0.00100
C267        C  0.39767540  0.56575805  0.08461079    -0.08500
C268        C  0.42467621  0.54182579  0.05033092    -0.05900
C269        C  0.48140449  0.55309518  0.06012466     0.00100
C270        C  0.51550278  0.60372823  0.10217600    -0.08400
C271        C  0.06108844  0.60159874  0.16736811     0.62000
H272        H  0.50727736  0.64855543  0.17930977     0.12700
H273        H  0.40005356  0.51399361  0.01531570     0.12700
C274        C  0.33846250  0.55545631  0.06754831     0.62200
F275        F  0.06278944  0.63547365  0.21582829    -0.23000
F276        F  0.10065547  0.64253894  0.12998240    -0.20300
F277        F  0.07940888  0.56494368  0.18723648    -0.20000
F278        F  0.34095007  0.60967175  0.06536637    -0.20000
F279        F  0.29778304  0.52054400  0.10809270    -0.20400
F280        F  0.32018922  0.52706570  0.01321855    -0.23000
C281        C  0.14948044  0.51207434  0.12770068    -0.05900
C282        C  0.18877701  0.57221814  0.12110845     0.00100
C283        C  0.17493371  0.60249029  0.08093395    -0.08500
C284        C  0.11802640  0.57401577  0.05761395    -0.05900
C285        C  0.07106704  0.51792879  0.07512236     0.00100
C286        C  0.08973899  0.48874936  0.11678926    -0.08400
C287        C  0.05511850  0.44765314  0.16588748     0.62000
H288        H  0.16288024  0.48786228  0.15522973     0.12700
H289        H  0.11016259  0.60038879  0.02981053     0.12700
C290        C  0.22021491  0.66458426  0.06230413     0.62200
F291        F  0.04424387  0.39084096  0.15408957    -0.23000
F292        F  0.00596885  0.44921441  0.17698236    -0.20300
F293        F  0.08643271  0.46569498  0.21799094    -0.20000
F294        F  0.27286793  0.66775193  0.05433143    -0.20600
F295        F  0.22662027  0.70643449  0.10462410    -0.20400
F296        F  0.20493636  0.67880924  0.01011578    -0.23000
C297        C  0.39219852  0.86442090  0.13036113    -0.05900
C298        C  0.42374709  0.83634178  0.13933586     0.00100
C299        C  0.47579779  0.85717250  0.10850058    -0.08500
C300        C  0.49586849  0.90803420  0.07373700    -0.05900
C301        C  0.46515324  0.93894547  0.06272532     0.00100
C302        C  0.40570042  0.90674186  0.08639971    -0.08400
C303        C  0.34860563  0.89856595  0.06196703     0.62000
H304        H  0.35167389  0.84742904  0.15365465     0.12700
H305        H  0.53996686  0.92725625  0.06006780     0.12700
C306        C  0.51218114  0.82806508  0.11438743     0.62200
F307        F  0.30509230  0.83893502  0.06274450    -0.23000
F308        F  0.34994360  0.91250747  0.00474811    -0.20300
F309        F  0.33056354  0.92981306  0.09691836    -0.20000
F310        F  0.47831289  0.76737412  0.10278365    -0.20000
F311        F  0.53493040  0.83805679  0.17045552    -0.20400
F312        F  0.55788419  0.85058998  0.07572102    -0.23000
C313        C  0.46163861  0.62329506  0.41362176    -0.05900
C314        C  0.41431518  0.58379949  0.37879917     0.00100
C315        C  0.39029614  0.52269742  0.38783688    -0.08500
C316        C  0.41692112  0.50437534  0.42863553    -0.05900
C317        C  0.47269224  0.54178743  0.45685502     0.00100
C318        C  0.48809530  0.60489693  0.45558767    -0.08400
C319        C  0.02497869  0.64644083  0.46481762     0.62000
H320        H  0.47627432  0.67034083  0.41005897     0.12700
H321        H  0.39448512  0.95936079  0.41894128     0.12700
C322        C  0.33812151  0.47574904  0.35248610     0.62200
F323        F  0.05482393  0.69138613  0.42558770    -0.23000
F324        F  0.06247345  0.63122358  0.48598335    -0.20300
F325        F  0.00619160  0.66887626  0.50968347    -0.20000
F326        F  0.35364366  0.99790938  0.27946190    -0.20000
F327        F  0.28957728  0.47878322  0.36687377    -0.20400
F328        F  0.33111110  0.92521252  0.34166999    -0.23000
C329        C  0.15328978  0.53869263  0.39114602    -0.05900
C330        C  0.17104458  0.59064357  0.36062190     0.00100
C331        C  0.13404024  0.61417214  0.36049714    -0.08500
C332        C  0.08092881  0.58421564  0.39017725    -0.05900
C333        C  0.06065555  0.53186191  0.42360583     0.00100
C334        C  0.09904122  0.50689456  0.41969519    -0.08400
C335        C  0.08974312  0.44728776  0.44013210     0.62000
H336        H  0.18204459  0.52079352  0.39035531     0.12700
H337        H  0.05385167  0.60164198  0.38282538     0.12700
C338        C  0.14888877  0.66985570  0.32690733     0.62200
F339        F  0.09908773  0.41803774  0.39364456    -0.23000
F340        F  0.04174071  0.90561537  0.45425076    -0.20300
F341        F  0.10705975  0.45228947  0.01107919    -0.20000
F342        F  0.15999547  0.66252759  0.26922143    -0.20000
F343        F  0.19703337  0.71868463  0.35200616    -0.20400
F344        F  0.10458801  0.68234395  0.32709655    -0.23000
C345        C  0.46347876  0.88259809  0.34509122    -0.05900
C346        C  0.42088285  0.83151086  0.37072822     0.00100
C347        C  0.39879004  0.83576982  0.42451360    -0.08500
C348        C  0.42405263  0.89202421  0.45281335    -0.05900
C349        C  0.47412631  0.94441168  0.43304388     0.00100
C350        C  0.48368862  0.93914460  0.37137421    -0.08400
C351        C  0.00352663  0.97655639  0.30961934     0.62000
H352        H  0.47534046  0.87889751  0.30033179     0.12700
H353        H  0.39911732  0.89517506  0.48651072     0.12700
C354        C  0.34705786  0.78171802  0.45015027     0.62200
F355        F  0.97577501  0.95267938  0.25717081    -0.23000
F356        F  0.06179334  0.99884200  0.30058335    -0.20300
F357        F  0.99223391  0.02136996  0.32150465    -0.20000
F358        F  0.35736966  0.73490392  0.45164613    -0.20000
F359        F  0.29853531  0.76480866  0.41591995    -0.20400
F360        F  0.33585403  0.79327292  0.50647893    -0.23000
O361        O  0.41248824  0.64263159  0.78919948    -0.81900
C362        C  0.22220520  0.60400901  0.66371766     0.97500
O363        O  0.25249634  0.58046594  0.66959035    -0.71000
O364        O  0.34411095  0.57440054  0.69240056    -0.74600
Al365      Al  0.28934753  0.58328164  0.74015988     1.49000
C366        C  0.38598011  0.61172291  0.66221439     0.92700
O367        O  0.41802409  0.76699401  0.70025614    -0.80800
O368        O  0.34985850  0.76760581  0.79234554    -0.74400
Al369      Al  0.40664251  0.70087459  0.74434108     1.90100
O370        O  0.32968935  0.74346253  0.67566350    -0.73400
O371        O  0.25335112  0.66699850  0.81440397    -0.73300
O372        O  0.22964963  0.64736912  0.69629913    -0.78900
O373        O  0.22533744  0.57497821  0.78753711    -0.77200
O374        O  0.32976311  0.66254150  0.74345833    -1.13300
O375        O  0.32239582  0.57769812  0.81031243    -0.72500
C376        C  0.37577182  0.59973712  0.81913925     0.98200
C377        C  0.38381243  0.77479983  0.66937447     0.94600
Al378      Al  0.29340604  0.70309713  0.74469237     1.55600
O379        O  0.40824238  0.66654562  0.67227258    -0.77100
C380        C  0.21975510  0.61175800  0.82040421     0.98800
C381        C  0.39336494  0.77579297  0.82140464     0.93700
O382        O  0.41304060  0.74131182  0.81579241    -0.82400
C383        C  0.50544975  0.00057018  0.54748534    -0.02600
C384        C  0.00458636  0.00381503  0.97927483    -0.02600
C385        C  0.47527680  0.61508394  0.64128953    -0.05900
C386        C  0.41794518  0.59251058  0.62452740     0.00100
C387        C  0.39188082  0.54548259  0.58324421    -0.08500
C388        C  0.42308001  0.51829465  0.56500622    -0.05900
C389        C  0.47984368  0.53598435  0.58530688     0.00100
C390        C  0.50389474  0.58348330  0.63017748    -0.08400
C391        C  0.08122008  0.65298575  0.61344410     0.62000
H392        H  0.49467043  0.65323792  0.67161405     0.12700
H393        H  0.40090333  0.47881512  0.53734655     0.12700
C394        C  0.33281708  0.52574469  0.55662154     0.62200
F395        F  0.08506016  0.70811461  0.61787926    -0.23000
F396        F  0.11837964  0.65972168  0.56977573    -0.20300
F397        F  0.10357505  0.64594071  0.66484818    -0.20000
F398        F  0.33571839  0.57306559  0.52789334    -0.20000
F399        F  0.29101946  0.50746476  0.59922293    -0.20400
F400        F  0.31553302  0.47883837  0.51647761    -0.23000
C401        C  0.11997955  0.53872448  0.65350467    -0.05900
C402        C  0.17133096  0.57459958  0.62566475     0.00100
C403        C  0.17097125  0.58989992  0.56783322    -0.08500
C404        C  0.11719366  0.56593512  0.53850832    -0.05900
C405        C  0.06267598  0.53177686  0.56619940     0.00100
C406        C  0.06671667  0.52378903  0.62852373    -0.08400
C407        C  0.02028562  0.50409343  0.67542912     0.62000
H408        H  0.12216080  0.52929158  0.69913763     0.12700
H409        H  0.12020892  0.58770381  0.49946380     0.12700
C410        C  0.22677482  0.63664367  0.53997117     0.62200
F411        F  0.01124761  0.45113643  0.69725659    -0.23000
F412        F  0.96755870  0.49637377  0.66022534    -0.20300
F413        F  0.04112757  0.54774804  0.71943104    -0.20000
F414        F  0.26656843  0.61802316  0.53997288    -0.20600
F415        F  0.24931924  0.68991617  0.57172165    -0.20400
F416        F  0.21844806  0.64706716  0.48291105    -0.23000
C417        C  0.39053431  0.86695392  0.63959935    -0.05900
C418        C  0.40764162  0.82539573  0.63041417     0.00100
C419        C  0.44651984  0.83369946  0.58529316    -0.08500
C420        C  0.47542627  0.88975327  0.55904995    -0.05900
C421        C  0.45988722  0.93386644  0.56775773     0.00100
C422        C  0.40537384  0.91230749  0.59980718    -0.08400
C423        C  0.34923860  0.91159893  0.58254450     0.62000
H424        H  0.35707446  0.85750730  0.67158933     0.12700
H425        H  0.51206600  0.90014423  0.53363797     0.12700
C426        C  0.46090359  0.78603887  0.56838984     0.62200
F427        F  0.30219334  0.85367152  0.58261777    -0.23000
F428        F  0.34738130  0.93018348  0.52750282    -0.20300
F429        F  0.33785851  0.94369146  0.62387973    -0.20000
F430        F  0.41026305  0.73200610  0.55882287    -0.20000
F431        F  0.49253249  0.78017314  0.61248536    -0.20400
F432        F  0.49293124  0.79982718  0.51766125    -0.23000
C433        C  0.44245390  0.61407923  0.89946803    -0.05900
C434        C  0.39633157  0.57462383  0.86359787     0.00100
C435        C  0.37400224  0.51319919  0.86842563    -0.08500
C436        C  0.40251265  0.49445135  0.90576542    -0.05900
C437        C  0.45903154  0.53340382  0.93130558     0.00100
C438        C  0.47447058  0.59597213  0.93290294    -0.08400
C439        C  0.02303641  0.64829024  0.99663265     0.62000
H440        H  0.45596755  0.66103158  0.89845925     0.12700
H441        H  0.38486329  0.94897209  0.91615777     0.12700
C442        C  0.32271230  0.46712093  0.83141451     0.62200
F443        F  0.06329756  0.69935347  0.96895784    -0.23000
F444        F  0.05226724  0.63389541  0.03401511    -0.20300
F445        F  0.98801058  0.66234166  0.02957619    -0.20000
F446        F  0.30769946  0.97054511  0.80643535    -0.20000
F447        F  0.27322062  0.46782506  0.84700792    -0.20400
F448        F  0.29372923  0.91116044  0.88068628    -0.23000
C449        C  0.15387811  0.53347515  0.88877578    -0.05900
C450        C  0.17267873  0.58917546  0.86531661     0.00100
C451        C  0.14519958  0.62040549  0.88393509    -0.08500
C452        C  0.09894755  0.59339699  0.92339777    -0.05900
C453        C  0.07294628  0.53386813  0.94332314     0.00100
C454        C  0.10657654  0.50505975  0.92802631    -0.08400
C455        C  0.09846881  0.44668993  0.95187633     0.62000
H456        H  0.17758505  0.51201695  0.87495573     0.12700
H457        H  0.08235734  0.62017473  0.93719553     0.12700
C458        C  0.16189272  0.68106259  0.85990010     0.62200
F459        F  0.13871893  0.43289326  0.93030742    -0.23000
F460        F  0.04205357  0.89894875  0.94492359    -0.20300
F461        F  0.12961342  0.45785703  0.48387965    -0.20000
F462        F  0.15999105  0.67770487  0.79941923    -0.20000
F463        F  0.21698526  0.72343232  0.87907711    -0.20400
F464        F  0.12472766  0.70041166  0.87759495    -0.23000
C465        C  0.45366912  0.88311433  0.82796392    -0.05900
C466        C  0.42410773  0.83009283  0.85729257     0.00100
C467        C  0.41294988  0.83086688  0.91641918    -0.08500
C468        C  0.43239767  0.88608717  0.94466925    -0.05900
C469        C  0.46836992  0.94246040  0.91938967     0.00100
C470        C  0.47040690  0.93855060  0.85541865    -0.08400
C471        C  0.00350744  0.98505960  0.83479583     0.62000
H472        H  0.45885153  0.88025002  0.78106196     0.12700
H473        H  0.41358907  0.88191075  0.98537794     0.12700
C474        C  0.37970586  0.77302104  0.94914363     0.62200
F475        F  0.96264137  0.96417179  0.79000696    -0.23000
F476        F  0.05537040  0.99382008  0.81322633    -0.20300
F477        F  0.01017583  0.03884823  0.85217422    -0.20000
F478        F  0.37411175  0.78292094  0.00790150    -0.20000
F479        F  0.40889569  0.74204986  0.94482187    -0.20400
F480        F  0.32480188  0.73819516  0.92519305    -0.23000
O481        O  0.91503109  0.13890788  0.29591749    -0.81900
C482        C  0.72439811  0.09962490  0.16697476     0.97500
O483        O  0.75411772  0.07548539  0.17391777    -0.71000
O484        O  0.84748123  0.07190896  0.19700468    -0.74600
Al485      Al  0.79202522  0.07948343  0.24484223     1.49000
C486        C  0.89036549  0.11001373  0.16830376     0.92700
O487        O  0.92252416  0.26452187  0.20816587    -0.80800
O488        O  0.85177013  0.26357413  0.29693421    -0.74400
Al489      Al  0.90955266  0.19743369  0.25176671     1.90100
O490        O  0.83496929  0.23969499  0.17914050    -0.73400
O491        O  0.75445122  0.16359601  0.31620713    -0.73300
O492        O  0.73329079  0.14429470  0.19818908    -0.78900
O493        O  0.72799717  0.07129334  0.29187246    -0.77200
O494        O  0.83244492  0.15872036  0.24835298    -1.13300
O495        O  0.82492700  0.07353088  0.31543373    -0.72500
C496        C  0.87820092  0.09542660  0.32493491     0.98200
C497        C  0.88932702  0.27152812  0.17487573     0.94600
Al498      Al  0.79644152  0.19953271  0.24770243     1.55600
O499        O  0.91346447  0.16462600  0.18010019    -0.77100
C500        C  0.72111539  0.10844128  0.32269262     0.98800
C501        C  0.89355730  0.27060664  0.32839279     0.93700
O502        O  0.91314414  0.23599734  0.32372308    -0.82400
C503        C  0.00617280  0.49592428  0.04874136    -0.02600
C504        C  0.50795715  0.50776112  0.48074235    -0.02600
C505        C  0.97925096  0.11353614  0.14338264    -0.05900
C506        C  0.92143620  0.09134754  0.12885841     0.00100
C507        C  0.89401778  0.04542838  0.08682639    -0.08500
C508        C  0.92376010  0.01742567  0.06654864    -0.05900
C509        C  0.98068651  0.03383015  0.08521954     0.00100
C510        C  0.00679526  0.08124371  0.13020330    -0.08400
C511        C  0.58276279  0.15132012  0.11421211     0.62000
H512        H  0.99971770  0.15123842  0.17417543     0.12700
H513        H  0.90016994  0.97835057  0.03861307     0.12700
C514        C  0.83448734  0.02723075  0.06249506     0.62200
F515        F  0.58989525  0.20768357  0.11025874    -0.23000
F516        F  0.62149477  0.15124289  0.07589095    -0.20300
F517        F  0.60063951  0.14781861  0.16974461    -0.20000
F518        F  0.83563844  0.07694515  0.04131455    -0.20000
F519        F  0.79309631  0.00297678  0.10541229    -0.20400
F520        F  0.81804874  0.98541446  0.01704018    -0.23000
C521        C  0.62113460  0.04088335  0.15732047    -0.05900
C522        C  0.67312993  0.07068458  0.12858047     0.00100
C523        C  0.67313276  0.07952891  0.06848095    -0.08500
C524        C  0.61945214  0.05842824  0.03943098    -0.05900
C525        C  0.56462502  0.03050858  0.06759941     0.00100
C526        C  0.56808105  0.02498944  0.13065005    -0.08400
C527        C  0.52068928  0.00502819  0.17660241     0.62000
H528        H  0.62278954  0.03478820  0.20396823     0.12700
H529        H  0.62491749  0.07892480  0.99907817     0.12700
C530        C  0.72822627  0.11545869  0.03375740     0.62200
F531        F  0.51236605  0.95261049  0.19911191    -0.23000
F532        F  0.46766558  0.99583509  0.16035819    -0.20300
F533        F  0.54000005  0.04881147  0.22036274    -0.20000
F534        F  0.73007036  0.07966606  0.98915445    -0.20600
F535        F  0.77821923  0.13740812  0.06700941    -0.20400
F536        F  0.72797662  0.16340723  0.00966422    -0.23000
C537        C  0.89936408  0.36534179  0.14793991    -0.05900
C538        C  0.91401711  0.32241489  0.13622060     0.00100
C539        C  0.94965654  0.32901391  0.08825943    -0.08500
C540        C  0.97694474  0.38429155  0.05989669    -0.05900
C541        C  0.96173639  0.42859033  0.06998695     0.00100
C542        C  0.90961149  0.40773853  0.10632451    -0.08400
C543        C  0.85006604  0.40103406  0.09148495     0.62000
H544        H  0.86915050  0.35784647  0.18306492     0.12700
H545        H  0.01108900  0.39336815  0.03072931     0.12700
C546        C  0.96293708  0.28072326  0.07107125     0.62200
F547        F  0.80487453  0.34342298  0.10115636    -0.23000
F548        F  0.84164298  0.40965917  0.03425724    -0.20300
F549        F  0.84069968  0.43779821  0.12861963    -0.20000
F550        F  0.99299371  0.29307143  0.01912547    -0.20000
F551        F  0.91179654  0.22671854  0.06377946    -0.20400
F552        F  0.99599644  0.27575302  0.11424934    -0.23000
C553        C  0.94575238  0.10818473  0.40405329    -0.05900
C554        C  0.89886233  0.06941971  0.36860151     0.00100
C555        C  0.87653239  0.00788284  0.37227793    -0.08500
C556        C  0.90758837  0.98836838  0.40496047    -0.05900
C557        C  0.96340432  0.02708485  0.43189043     0.00100
C558        C  0.97776480  0.08928657  0.43639509    -0.08400
C559        C  0.52781365  0.15435354  0.49210425     0.62000
H560        H  0.95936510  0.15520074  0.40421056     0.12700
H561        H  0.88183473  0.44387901  0.41654503     0.12700
C562        C  0.82106132  0.96248742  0.34019155     0.62200
F563        F  0.56991141  0.20390675  0.46381016    -0.23000
F564        F  0.55491991  0.13811321  0.53030219    -0.20300
F565        F  0.49449481  0.17138088  0.52414851    -0.20000
F566        F  0.82294656  0.46930817  0.28490806    -0.20000
F567        F  0.77513067  0.96729607  0.36118070    -0.20400
F568        F  0.80457017  0.40330072  0.35384329    -0.23000
C569        C  0.65322595  0.03173070  0.39097084    -0.05900
C570        C  0.67271593  0.08668778  0.36575595     0.00100
C571        C  0.64462961  0.11817080  0.38078877    -0.08500
C572        C  0.59930420  0.09370181  0.42121440    -0.05900
C573        C  0.57214263  0.03481304  0.44255282     0.00100
C574        C  0.60442867  0.00407024  0.42850098    -0.08400
C575        C  0.59413740  0.94472528  0.45217951     0.62000
H576        H  0.67771073  0.01038763  0.37992093     0.12700
H577        H  0.58405716  0.12184357  0.43398716     0.12700
C578        C  0.65902626  0.17587774  0.35142409     0.62200
F579        F  0.62999767  0.92658761  0.42715400    -0.23000
F580        F  0.54336171  0.40149150  0.44996838    -0.20300
F581        F  0.63288408  0.95518366  0.97085995    -0.20000
F582        F  0.65807989  0.16790040  0.29130993    -0.20000
F583        F  0.71304216  0.22148883  0.36969248    -0.20400
F584        F  0.61940844  0.19344694  0.36437259    -0.23000
C585        C  0.95755926  0.37691669  0.33436394    -0.05900
C586        C  0.92403589  0.32496747  0.36430768     0.00100
C587        C  0.90826929  0.32795775  0.42167184    -0.08500
C588        C  0.92810541  0.38441066  0.44781872    -0.05900
C589        C  0.96734158  0.43939052  0.42164011     0.00100
C590        C  0.97246577  0.43299632  0.35861763    -0.08400
C591        C  0.50683469  0.49457650  0.33563017     0.62000
H592        H  0.96578174  0.37271895  0.28842477     0.12700
H593        H  0.90541663  0.38328082  0.48490282     0.12700
C594        C  0.86928075  0.27136524  0.45431414     0.62200
F595        F  0.46254349  0.47693387  0.29501823    -0.23000
F596        F  0.55561268  0.50117096  0.30798809    -0.20300
F597        F  0.51863926  0.54941227  0.35599237    -0.20000
F598        F  0.89467261  0.23663966  0.45569684    -0.20000
F599        F  0.81604815  0.23934882  0.42632772    -0.20400
F600        F  0.86023631  0.28337968  0.51135118    -0.23000
O601        O  0.92436654  0.14765250  0.80269808    -0.81900
C602        C  0.73493150  0.09883074  0.66276309     0.97500
O603        O  0.76086682  0.07280647  0.67924585    -0.71000
O604        O  0.85579522  0.07356381  0.70641717    -0.74600
Al605      Al  0.80052521  0.08327906  0.75108227     1.49000
C606        C  0.89918148  0.10948542  0.67722200     0.92700
O607        O  0.93170972  0.27012175  0.70560567    -0.80800
O608        O  0.85399385  0.26711816  0.79566584    -0.74400
Al609      Al  0.91755672  0.20317128  0.75350404     1.90100
O610        O  0.84536240  0.24614214  0.67597446    -0.73400
O611        O  0.75440982  0.16703433  0.80810769    -0.73300
O612        O  0.74483612  0.14707776  0.68789354    -0.78900
O613        O  0.73598139  0.07582127  0.79521916    -0.77200
O614        O  0.83999429  0.16315129  0.74906785    -1.13300
O615        O  0.83497308  0.08185052  0.82358977    -0.72500
C616        C  0.88859181  0.10431334  0.83264197     0.98200
C617        C  0.89957669  0.27978839  0.67304946     0.94600
Al618      Al  0.80288159  0.20320449  0.74255413     1.55600
O619        O  0.92298823  0.16512259  0.68513957    -0.77100
C620        C  0.72348477  0.11237994  0.81840356     0.98800
C621        C  0.89601821  0.27612859  0.82817507     0.93700
O622        O  0.91948649  0.24503989  0.82264265    -0.82400
C623        C  0.00107686  0.50666462  0.53440050    -0.02600
C624        C  0.49611656  0.50348987  0.95411991    -0.02600
C625        C  0.98266047  0.10250976  0.64863818    -0.05900
C626        C  0.92597923  0.08653746  0.63692759     0.00100
C627        C  0.89934974  0.05523464  0.58515469    -0.08500
C628        C  0.92770440  0.03213096  0.55170254    -0.05900
C629        C  0.98418123  0.04321714  0.56297760     0.00100
C630        C  0.01569309  0.09094760  0.60833276    -0.08400
C631        C  0.56393834  0.10524991  0.66699952     0.62000
H632        H  0.00336850  0.13056997  0.68736490     0.12700
H633        H  0.90467651  0.00596915  0.51535329     0.12700
C634        C  0.84111431  0.04590885  0.56553146     0.62200
F635        F  0.56571713  0.14101828  0.71385776    -0.23000
F636        F  0.59965917  0.14485353  0.62643134    -0.20300
F637        F  0.58687265  0.07265048  0.68734617    -0.20000
F638        F  0.84469977  0.10056889  0.56201294    -0.20000
F639        F  0.79888680  0.01164637  0.60516690    -0.20400
F640        F  0.82417041  0.01733827  0.51114690    -0.23000
C641        C  0.64525538  0.00993227  0.62730804    -0.05900
C642        C  0.68728157  0.06892811  0.61843458     0.00100
C643        C  0.67486121  0.10059191  0.57856604    -0.08500
C644        C  0.61789401  0.07489181  0.55628168    -0.05900
C645        C  0.56961634  0.01979602  0.57375144     0.00100
C646        C  0.58596977  0.98956559  0.61646280    -0.08400
C647        C  0.54972244  0.94998177  0.66602005     0.62000
H648        H  0.65675793  0.98510823  0.65618842     0.12700
H649        H  0.61151931  0.10256485  0.52857971     0.12700
C650        C  0.72071887  0.16276984  0.56097936     0.62200
F651        F  0.53824870  0.89260902  0.65650945    -0.23000
F652        F  0.50029841  0.95187690  0.67513933    -0.20300
F653        F  0.58043424  0.96919878  0.71836562    -0.20000
F654        F  0.77541666  0.16980220  0.56355101    -0.20600
F655        F  0.71906484  0.20460562  0.59810684    -0.20400
F656        F  0.71128340  0.17315674  0.50425766    -0.23000
C657        C  0.89196832  0.36118783  0.62799510    -0.05900
C658        C  0.92407165  0.33322691  0.63428745     0.00100
C659        C  0.97601418  0.35611409  0.60281029    -0.08500
C660        C  0.99508039  0.40819539  0.56986561    -0.05900
C661        C  0.96403975  0.43931411  0.56225462     0.00100
C662        C  0.90549434  0.40690954  0.58772413    -0.08400
C663        C  0.85014950  0.40650566  0.57001944     0.62000
H664        H  0.85221143  0.34348403  0.65268815     0.12700
H665        H  0.03874252  0.42832903  0.55466415     0.12700
C666        C  0.01301332  0.32747276  0.60573446     0.62200
F667        F  0.80187838  0.34972288  0.57394625    -0.23000
F668        F  0.84880113  0.41998861  0.51293795    -0.20300
F669        F  0.84122716  0.44301140  0.60783272    -0.20000
F670        F  0.97954457  0.26710896  0.59218008    -0.20000
F671        F  0.03626060  0.33559067  0.66137382    -0.20400
F672        F  0.05836469  0.35193901  0.56669191    -0.23000
C673        C  0.95657429  0.11903247  0.91403324    -0.05900
C674        C  0.91066781  0.07970982  0.87766110     0.00100
C675        C  0.88722480  0.01860136  0.88576184    -0.08500
C676        C  0.91305665  0.00029911  0.92739378    -0.05900
C677        C  0.96865403  0.03753177  0.95593722     0.00100
C678        C  0.98328598  0.10048804  0.95557783    -0.08400
C679        C  0.53185452  0.14957455  0.96924049     0.62000
H680        H  0.97060694  0.16599508  0.91114301     0.12700
H681        H  0.89495857  0.45287253  0.92010715     0.12700
C682        C  0.83633460  0.97162237  0.84898026     0.62200
F683        F  0.56188137  0.19387323  0.92946136    -0.23000
F684        F  0.56855048  0.13244836  0.98945383    -0.20300
F685        F  0.51553404  0.17393049  0.01450285    -0.20000
F686        F  0.84375023  0.48814857  0.78652480    -0.20000
F687        F  0.78673636  0.97284927  0.86278483    -0.20400
F688        F  0.82464733  0.41719152  0.84991552    -0.23000
C689        C  0.65069243  0.03579854  0.88367053    -0.05900
C690        C  0.67062373  0.08970756  0.85614515     0.00100
C691        C  0.63572751  0.11573976  0.85922222    -0.08500
C692        C  0.58312844  0.08685100  0.89028162    -0.05900
C693        C  0.56210277  0.03371220  0.92275000     0.00100
C694        C  0.59813874  0.00639036  0.91515883    -0.08400
C695        C  0.58747396  0.94639158  0.93517619     0.62000
H696        H  0.67689431  0.01506328  0.87941591     0.12700
H697        H  0.55681338  0.10545558  0.88441862     0.12700
C698        C  0.65186895  0.17251748  0.82699539     0.62200
F699        F  0.58502379  0.91219475  0.88661652    -0.23000
F700        F  0.53059321  0.40394763  0.95199335    -0.20300
F701        F  0.60694817  0.95148829  0.51079941    -0.20000
F702        F  0.66200312  0.16586757  0.76881470    -0.20000
F703        F  0.70108987  0.21997885  0.85218426    -0.20400
F704        F  0.60873273  0.18670906  0.82878999    -0.23000
C705        C  0.96545291  0.38138859  0.84260561    -0.05900
C706        C  0.92336440  0.32919209  0.86706437     0.00100
C707        C  0.90223560  0.33179137  0.92219924    -0.08500
C708        C  0.92743676  0.38737474  0.95243248    -0.05900
C709        C  0.97636614  0.44096265  0.93293367     0.00100
C710        C  0.98545542  0.43726449  0.87069065    -0.08400
C711        C  0.49454532  0.48326243  0.81049860     0.62000
H712        H  0.97703362  0.37910497  0.79740919     0.12700
H713        H  0.90299330  0.38941467  0.98749642     0.12700
C714        C  0.85195141  0.27640762  0.94770817     0.62200
F715        F  0.46536094  0.46080247  0.75860182    -0.23000
F716        F  0.55205650  0.50301925  0.80044994    -0.20300
F717        F  0.48669056  0.53017839  0.82308357    -0.20000
F718        F  0.86547743  0.23187936  0.94973279    -0.20000
F719        F  0.80320399  0.25675505  0.91297566    -0.20400
F720        F  0.83921628  0.28706342  0.00380467    -0.23000
O721        O  0.90518608  0.63366944  0.29417881    -0.81900
C722        C  0.71302343  0.58696574  0.16727854     0.97500
O723        O  0.74221735  0.56256423  0.17648053    -0.71000
O724        O  0.83488600  0.55755261  0.20430789    -0.74600
Al725      Al  0.78105021  0.57137264  0.24807739     1.49000
C726        C  0.87816619  0.59196541  0.17407260     0.92700
O727        O  0.91010005  0.75095029  0.19218693    -0.80800
O728        O  0.84472523  0.75978114  0.28630792    -0.74400
Al729      Al  0.89912845  0.68814685  0.24354945     1.90100
O730        O  0.82151063  0.72617809  0.16894617    -0.73400
O731        O  0.74789522  0.66200303  0.31313014    -0.73300
O732        O  0.72216906  0.63313463  0.19609246    -0.78900
O733        O  0.71857911  0.56820310  0.29389492    -0.77200
O734        O  0.82230795  0.65055729  0.24451969    -1.13300
O735        O  0.81560150  0.57138003  0.31973250    -0.72500
C736        C  0.86920971  0.59284678  0.32661334     0.98200
C737        C  0.87517417  0.75629511  0.15945762     0.94600
Al738      Al  0.78688182  0.69197883  0.24135685     1.55600
O739        O  0.89916614  0.64720036  0.17611791    -0.77100
C740        C  0.71458994  0.60770974  0.32376397     0.98800
C741        C  0.88722020  0.76736681  0.31705390     0.93700
O742        O  0.90734540  0.73347070  0.31141421    -0.82400
C743        C  0.00489299  0.99535834  0.05646716    -0.02600
C744        C  0.50681633  0.00693771  0.46990763    -0.02600
C745        C  0.95962004  0.57639631  0.16933757    -0.05900
C746        C  0.91045229  0.56966785  0.14237120     0.00100
C747        C  0.89744030  0.54858939  0.08517113    -0.08500
C748        C  0.92995398  0.52617227  0.05990557    -0.05900
C749        C  0.98228770  0.53376175  0.08258280     0.00100
C750        C  0.00036097  0.56693384  0.13894722    -0.08400
C751        C  0.58110572  0.65012904  0.11061314     0.62000
H752        H  0.96753556  0.59390524  0.21398402     0.12700
H753        H  0.91097630  0.49844676  0.02309499     0.12700
C754        C  0.84689799  0.54584777  0.05292603     0.62200
F755        F  0.58834950  0.70678116  0.11179085    -0.23000
F756        F  0.61879140  0.65273872  0.06920842    -0.20300
F757        F  0.60051100  0.64296940  0.16386572    -0.20000
F758        F  0.85677072  0.60307090  0.04893985    -0.20000
F759        F  0.79616762  0.51134022  0.08296375    -0.20400
F760        F  0.83992933  0.52172885  0.99693055    -0.23000
C761        C  0.60996499  0.52738348  0.15566947    -0.05900
C762        C  0.66259329  0.55799642  0.12817283     0.00100
C763        C  0.66462650  0.57346247  0.06990291    -0.08500
C764        C  0.61233315  0.55613991  0.04023950    -0.05900
C765        C  0.55714832  0.52650796  0.06674625     0.00100
C766        C  0.55859808  0.51727898  0.12943276    -0.08400
C767        C  0.51196211  0.50199540  0.17575430     0.62000
H768        H  0.61037696  0.51839481  0.20174147     0.12700
H769        H  0.61818953  0.58021147  0.00205306     0.12700
C770        C  0.72240037  0.61165841  0.04060818     0.62200
F771        F  0.49892890  0.44885428  0.20050691    -0.23000
F772        F  0.46112260  0.49759461  0.15866291    -0.20300
F773        F  0.53460770  0.54677620  0.21861747    -0.20000
F774        F  0.75141850  0.58071551  0.03806727    -0.20600
F775        F  0.75513917  0.66453033  0.07209968    -0.20400
F776        F  0.71642900  0.62588117  0.98440185    -0.23000
C777        C  0.87463232  0.84272657  0.12284768    -0.05900
C778        C  0.89724473  0.80572201  0.11731364     0.00100
C779        C  0.94600384  0.82424037  0.08197511    -0.08500
C780        C  0.97518004  0.88359965  0.06184444    -0.05900
C781        C  0.96218364  0.92828333  0.07992232     0.00100
C782        C  0.91037866  0.90485324  0.11791352    -0.08400
C783        C  0.89045168  0.93478471  0.16426433     0.62000
H784        H  0.83325478  0.82482221  0.14472276     0.12700
H785        H  0.01190020  0.89702869  0.03575968     0.12700
C786        C  0.96507366  0.78056954  0.06348296     0.62200
F787        F  0.87212679  0.90153833  0.21453936    -0.23000
F788        F  0.84313929  0.93639559  0.14321456    -0.20300
F789        F  0.93199553  0.98977270  0.18438109    -0.20000
F790        F  0.91826518  0.72932837  0.03980681    -0.20000
F791        F  0.98627288  0.76572792  0.11099881    -0.20400
F792        F  0.00794689  0.80396077  0.02179107    -0.23000
C793        C  0.93940426  0.61000211  0.40380770    -0.05900
C794        C  0.89128039  0.56920362  0.37103590     0.00100
C795        C  0.86998242  0.50804190  0.37699451    -0.08500
C796        C  0.90191633  0.49087539  0.41128265    -0.05900
C797        C  0.95924628  0.53131131  0.43440578     0.00100
C798        C  0.97369368  0.59344006  0.43528645    -0.08400
C799        C  0.52443669  0.65723063  0.49813071     0.62000
H800        H  0.95240676  0.65677515  0.40193042     0.12700
H801        H  0.88717782  0.94109672  0.40714472     0.12700
C802        C  0.81588950  0.46051499  0.34438054     0.62200
F803        F  0.56507934  0.70629295  0.46826003    -0.23000
F804        F  0.55338820  0.64654571  0.53945785    -0.20300
F805        F  0.48846844  0.67328259  0.52636886    -0.20000
F806        F  0.82679328  0.97261974  0.28088120    -0.20000
F807        F  0.76822192  0.46350019  0.36264791    -0.20400
F808        F  0.80780192  0.90434875  0.34763631    -0.23000
C809        C  0.65204925  0.53439860  0.39663164    -0.05900
C810        C  0.67023383  0.58890954  0.37131108     0.00100
C811        C  0.64489215  0.62194639  0.39095930    -0.08500
C812        C  0.60099373  0.59750826  0.43361665    -0.05900
C813        C  0.57387732  0.53792729  0.45364806     0.00100
C814        C  0.60600173  0.50766891  0.43713898    -0.08400
C815        C  0.59788081  0.44934744  0.46073299     0.62000
H816        H  0.67508967  0.51224903  0.38282894     0.12700
H817        H  0.58621759  0.62559576  0.44879386     0.12700
C818        C  0.66081868  0.68111985  0.36406501     0.62200
F819        F  0.63470691  0.43248407  0.43570249    -0.23000
F820        F  0.53931995  0.89767305  0.44123910    -0.20300
F821        F  0.62202496  0.45266556  0.98360257    -0.20000
F822        F  0.65405753  0.67377682  0.30391860    -0.20000
F823        F  0.71750055  0.72350781  0.37812890    -0.20400
F824        F  0.62613976  0.70283907  0.38352241    -0.23000
C825        C  0.96003375  0.87115832  0.32952456    -0.05900
C826        C  0.91767392  0.82016524  0.35532966     0.00100
C827        C  0.90066216  0.82378098  0.41215193    -0.08500
C828        C  0.92760588  0.87972426  0.44107692    -0.05900
C829        C  0.97144852  0.93430327  0.41754017     0.00100
C830        C  0.98050250  0.92817341  0.35520709    -0.08400
C831        C  0.50531925  0.98677027  0.32600758     0.62000
H832        H  0.97185475  0.86653457  0.28504634     0.12700
H833        H  0.90623449  0.87881241  0.47890360     0.12700
C834        C  0.85362428  0.77081505  0.44447163     0.62200
F835        F  0.46152934  0.96779670  0.28448819    -0.23000
F836        F  0.55466298  0.99165482  0.30140307    -0.20300
F837        F  0.51733204  0.04248260  0.34343514    -0.20000
F838        F  0.83072036  0.71734603  0.41315444    -0.20000
F839        F  0.80904790  0.78109627  0.45751294    -0.20400
F840        F  0.87652388  0.76494160  0.49619127    -0.23000
O841        O  0.92470742  0.65375741  0.80852409    -0.81900
C842        C  0.73672557  0.60784523  0.67001050     0.97500
O843        O  0.76413443  0.58267765  0.68406426    -0.71000
O844        O  0.85766349  0.58205712  0.71010132    -0.74600
Al845      Al  0.80171347  0.58940295  0.75576472     1.49000
C846        C  0.90078256  0.61934879  0.68160291     0.92700
O847        O  0.93011321  0.77645766  0.71518790    -0.80800
O848        O  0.85170840  0.77058310  0.80633539    -0.74400
Al849      Al  0.91738789  0.70984191  0.76186349     1.90100
O850        O  0.84301468  0.75137855  0.68671541    -0.73400
O851        O  0.75484104  0.66989763  0.81838477    -0.73300
O852        O  0.74388422  0.65339898  0.69832076    -0.78900
O853        O  0.73619576  0.57914781  0.80025694    -0.77200
O854        O  0.84005802  0.66898303  0.75697767    -1.13300
O855        O  0.83547799  0.58560290  0.82741649    -0.72500
C856        C  0.88915533  0.60845520  0.83618909     0.98200
C857        C  0.89707496  0.78348410  0.68141199     0.94600
Al858      Al  0.80176035  0.70799382  0.75291024     1.55600
O859        O  0.92444951  0.67453909  0.69230045    -0.77100
C860        C  0.72387011  0.61474657  0.82597953     0.98800
C861        C  0.89261622  0.77843832  0.83958410     0.93700
O862        O  0.91759294  0.74895920  0.83248396    -0.82400
C863        C  0.00235998  0.99805854  0.53254468    -0.02600
C864        C  0.50012990  0.00522549  0.95656268    -0.02600
C865        C  0.98481277  0.61620393  0.64745232    -0.05900
C866        C  0.92730203  0.59826750  0.63875813     0.00100
C867        C  0.89890652  0.56550147  0.58811275    -0.08500
C868        C  0.92629084  0.54174586  0.55377952    -0.05900
C869        C  0.98323450  0.55325589  0.56330620     0.00100
C870        C  0.01634350  0.60374883  0.60605326    -0.08400
C871        C  0.54892105  0.59592013  0.67758592     0.62000
H872        H  0.00691131  0.64562384  0.68503089     0.12700
H873        H  0.90159865  0.51414667  0.51878985     0.12700
C874        C  0.83950938  0.55465238  0.57100471     0.62200
F875        F  0.53541623  0.61397764  0.72989710    -0.23000
F876        F  0.60261784  0.64137394  0.66149695    -0.20300
F877        F  0.55049759  0.54618691  0.69121743    -0.20000
F878        F  0.84152442  0.60864823  0.56853214    -0.20000
F879        F  0.79905984  0.51967444  0.61173589    -0.20400
F880        F  0.82125828  0.52593381  0.51682589    -0.23000
C881        C  0.65173960  0.51817585  0.63241583    -0.05900
C882        C  0.68959667  0.57846016  0.62582200     0.00100
C883        C  0.67259112  0.60966386  0.59032045    -0.08500
C884        C  0.61485581  0.58061284  0.56973196    -0.05900
C885        C  0.57054020  0.52231286  0.58470953     0.00100
C886        C  0.59161116  0.49280621  0.62359190    -0.08400
C887        C  0.56013429  0.44300404  0.66769093     0.62000
H888        H  0.66748125  0.49416149  0.65713737     0.12700
H889        H  0.60472565  0.60617250  0.54316694     0.12700
C890        C  0.71447798  0.67334655  0.57288263     0.62200
F891        F  0.56199328  0.39323211  0.64900032    -0.23000
F892        F  0.50468107  0.42804149  0.67969465    -0.20300
F893        F  0.58858580  0.46073038  0.72139382    -0.20000
F894        F  0.77158463  0.68935494  0.58244745    -0.20600
F895        F  0.70321332  0.71224082  0.60443228    -0.20400
F896        F  0.70807819  0.67925827  0.51396592    -0.23000
C897        C  0.88968748  0.86032375  0.62761149    -0.05900
C898        C  0.92061799  0.83165547  0.63730900     0.00100
C899        C  0.96984563  0.84761429  0.60282354    -0.08500
C900        C  0.98964468  0.89652563  0.56548564    -0.05900
C901        C  0.96192088  0.93069349  0.55775733     0.00100
C902        C  0.90339807  0.90175784  0.58291150    -0.08400
C903        C  0.84723451  0.89719677  0.56027799     0.62000
H904        H  0.85013783  0.84567954  0.65209815     0.12700
H905        H  0.03232609  0.91323952  0.54879113     0.12700
C906        C  0.00344757  0.81534351  0.60708142     0.62200
F907        F  0.80221989  0.83828564  0.56076811    -0.23000
F908        F  0.84799734  0.91301875  0.50352592    -0.20300
F909        F  0.83179216  0.92919000  0.59743129    -0.20000
F910        F  0.96627648  0.75472873  0.59807205    -0.20000
F911        F  0.02942659  0.82613209  0.66163963    -0.20400
F912        F  0.04654597  0.83392826  0.56560702    -0.23000
C913        C  0.95824090  0.61938976  0.91388326    -0.05900
C914        C  0.91190857  0.58164032  0.87727686     0.00100
C915        C  0.88981725  0.52014337  0.87996377    -0.08500
C916        C  0.91852887  0.49987850  0.91542409    -0.05900
C917        C  0.97292136  0.53680818  0.94631654     0.00100
C918        C  0.98589348  0.59901557  0.95169465    -0.08400
C919        C  0.52542011  0.64822216  0.96406900     0.62000
H920        H  0.97142772  0.66632145  0.91480513     0.12700
H921        H  0.88700780  0.95460897  0.93707075     0.12700
C922        C  0.83611183  0.47506281  0.84516211     0.62200
F923        F  0.55695630  0.69360401  0.92568175    -0.23000
F924        F  0.56198855  0.63218529  0.98644865    -0.20300
F925        F  0.50581707  0.67061370  0.00819334    -0.20000
F926        F  0.84818351  0.98255941  0.79025172    -0.20000
F927        F  0.78830389  0.47676220  0.86539821    -0.20400
F928        F  0.82554371  0.91452395  0.85808687    -0.23000
C929        C  0.65171186  0.53790568  0.89167982    -0.05900
C930        C  0.67050836  0.59082307  0.86241087     0.00100
C931        C  0.63395615  0.61476322  0.86180595    -0.08500
C932        C  0.58130439  0.58559094  0.89187708    -0.05900
C933        C  0.55936248  0.53188791  0.92339026     0.00100
C934        C  0.59665503  0.50561743  0.91867770    -0.08400
C935        C  0.58567307  0.44467417  0.93714706     0.62000
H936        H  0.68021774  0.51971589  0.89088933     0.12700
H937        H  0.55492140  0.60350103  0.88409288     0.12700
C938        C  0.64736846  0.66832982  0.82512661     0.62200
F939        F  0.59862615  0.41797413  0.89098951    -0.23000
F940        F  0.53811644  0.91350331  0.96490723    -0.20300
F941        F  0.61170439  0.45713719  0.51906850    -0.20000
F942        F  0.65725634  0.65775185  0.76799416    -0.20000
F943        F  0.69551386  0.71891753  0.84757468    -0.20400
F944        F  0.60258050  0.68007805  0.82403342    -0.23000
C945        C  0.96371828  0.88125498  0.85521487    -0.05900
C946        C  0.91879194  0.83056224  0.87904498     0.00100
C947        C  0.89326706  0.83561305  0.93083971    -0.08500
C948        C  0.92069616  0.89083375  0.96183112    -0.05900
C949        C  0.97194238  0.94222825  0.94218474     0.00100
C950        C  0.98217154  0.93747466  0.88057551    -0.08400
C951        C  0.48483418  0.98696690  0.81047577     0.62000
H952        H  0.97792799  0.87780853  0.81143957     0.12700
H953        H  0.89761709  0.89527149  0.99808612     0.12700
C954        C  0.83624129  0.78412945  0.95125914     0.62200
F955        F  0.44676708  0.96257883  0.76335321    -0.23000
F956        F  0.54020590  0.00820423  0.79079338    -0.20300
F957        F  0.48007392  0.03458871  0.82850243    -0.20000
F958        F  0.84172337  0.73495447  0.95974518    -0.20000
F959        F  0.79398588  0.76991344  0.90934189    -0.20400
F960        F  0.81815831  0.79793066  0.00297555    -0.23000
loop_ 
_geom_bond_atom_site_label_1 
_geom_bond_atom_site_label_2 
_geom_bond_distance 
_geom_bond_site_symmetry_2 
_ccdc_geom_bond_type 
O1           C16   1.266       .  A
O1           Al9   1.936       .  S
C2           O12   1.266       .  A
C2            O3   1.258       .  A
C2           C42   1.484       .  S
O3           Al5   1.886       .  S
O4            C6   1.259       .  A
O4           Al5   1.902       .  S
Al5          O13   1.917       .  S
Al5          O15   1.902       .  S
Al5          O14   1.784       .  S
C6           O19   1.259       .  A
C6           C26   1.461       .  S
O7           C17   1.263       .  A
O7           Al9   1.936       .  S
O8           C21   1.265       .  A
O8          Al18   1.915       .  S
Al9          O22   1.884       .  S
Al9          O19   1.882       .  S
Al9          O14   1.788       .  S
O10          C17   1.258       .  A
O10         Al18   1.894       .  S
O11          C20   1.258       .  A
O11         Al18   1.904       .  S
O12         Al18   1.933       .  S
O13          C20   1.261       .  A
O14         Al18   1.782       .  S
O15          C16   1.261       .  A
C16          C74   1.493       .  S
C17          C58   1.495       .  S
C20          C90   1.494       .  S
C21          O22   1.258       .  A
C21         C106   1.463       .  S
C23          C61   1.638       .  S
C23         C269   1.620       .  S
C23         C765   1.604       .  S
C23         C624   1.785   1_554  S
C24         C797   1.633       .  S
C24         C333   1.636   1_655  S
C24         C589   1.618       .  S
C24         C623   1.788   1_655  S
C25          C26   1.379       .  A
C25          C30   1.407       .  A
C25          H32   1.088       .  S
C26          C27   1.393       .  A
C27          C34   1.523       .  S
C27          C28   1.403       .  A
C28          C29   1.415       .  A
C28          H33   1.038       .  S
C29         C263   1.635       .  S
C29          C30   1.490       .  A
C30         C511   1.553       .  S
C31         C510   1.532       .  S
C31          F35   1.387       .  S
C31          F36   1.376       .  S
C31          F37   1.365       .  S
C34          F38   1.383       .  S
C34          F39   1.382       .  S
C34          F40   1.384       .  S
C41          C42   1.382       .  A
C41          C46   1.414   1_545  A
C41          H48   1.085   1_545  S
C42          C43   1.395       .  A
C43          C50   1.519       .  S
C43          C44   1.409       .  A
C44          C45   1.424       .  A
C44          H49   1.048       .  S
C45         C743   1.633   1_545  S
C45          C46   1.485   1_545  A
C46          C47   1.542       .  S
C47          F51   1.381       .  S
C47          F52   1.361       .  S
C47          F53   1.389       .  S
C50          F54   1.383       .  S
C50          F55   1.382       .  S
C50          F56   1.383       .  S
C57          C58   1.393       .  A
C57          C62   1.415       .  A
C57          H64   1.086       .  S
C58          C59   1.406       .  A
C59          C66   1.517       .  S
C59          C60   1.411       .  A
C60          C61   1.435       .  A
C60          H65   1.070       .  S
C61          C62   1.472       .  A
C62          C63   1.535       .  S
C63          F67   1.389       .  S
C63          F68   1.370       .  S
C63          F69   1.377       .  S
C66          F70   1.384       .  S
C66          F71   1.382       .  S
C66          F72   1.384       .  S
C73          C74   1.390       .  A
C73          C78   1.421       .  A
C73          H80   1.086       .  S
C74          C75   1.402       .  A
C75          C82   1.524   1_545  S
C75          C76   1.405       .  A
C76          C77   1.446       .  A
C76         H321   1.063   1_545  S
C77         C744   1.676       .  S
C77          C78   1.477       .  A
C78         C559   1.525       .  S
C79         C558   1.514   1_455  S
C79          F83   1.385       .  S
C79          F84   1.352       .  S
C79          F85   1.382       .  S
H81         C316   1.063       .  S
C82          F87   1.383       .  S
C82         F326   1.383       .  S
C82         F328   1.385       .  S
F86         C322   1.384       .  S
F88         C322   1.385       .  S
C89          C90   1.397       .  A
C89          C94   1.423       .  A
C89          H96   1.086       .  S
C90          C91   1.404       .  A
C91          C98   1.529       .  S
C91          C92   1.404       .  A
C92          C93   1.432       .  A
C92          H97   1.048       .  S
C93         C264   1.631   1_545  S
C93          C94   1.470       .  A
C94          C95   1.529   1_545  S
C95          F99   1.386       .  S
C95         F340   1.359       .  S
C95         F221   1.383       .  S
C98         F102   1.381       .  S
C98         F103   1.381       .  S
C98         F104   1.384       .  S
F100        C335   1.355       .  S
F101        C215   1.367   1_554  S
C105        C106   1.382       .  A
C105        C110   1.399       .  A
C105        H112   1.087       .  S
C106        C107   1.400       .  A
C107        C114   1.515       .  S
C107        C108   1.411       .  A
C108        C109   1.428       .  A
C108        H113   1.069       .  S
C109        C504   1.603       .  S
C109        C110   1.454       .  A
C110        C591   1.525       .  S
C111        C590   1.535       .  S
C111        F115   1.384       .  S
C111        F116   1.374   1_655  S
C111        F117   1.364       .  S
C114        F118   1.383       .  S
C114        F119   1.381       .  S
C114        F120   1.381       .  S
O121        C136   1.266       .  A
O121       Al129   1.919       .  S
C122        O132   1.265       .  A
C122        O123   1.259       .  A
C122        C162   1.467       .  S
O123       Al125   1.899       .  S
O124        C126   1.261       .  A
O124       Al125   1.919       .  S
Al125       O133   1.927       .  S
Al125       O135   1.893       .  S
Al125       O134   1.781       .  S
C126        O139   1.253       .  A
C126        C146   1.446       .  S
O127        C137   1.267       .  A
O127       Al129   1.947       .  S
O128        C141   1.265       .  A
O128       Al138   1.920       .  S
Al129       O142   1.867       .  S
Al129       O139   1.853       .  S
Al129       O134   1.779       .  S
O130        C137   1.262       .  A
O130       Al138   1.909       .  S
O131        C140   1.263       .  A
O131       Al138   1.917       .  S
O132       Al138   1.912       .  S
O133        C140   1.265       .  A
O134       Al138   1.770       .  S
O135        C136   1.259       .  A
C136        C194   1.477       .  S
C137        C178   1.500       .  S
C140        C210   1.504       .  S
C141        O142   1.251       .  A
C141        C226   1.455       .  S
C143        C389   1.576       .  S
C143        C885   1.631       .  S
C143        C181   1.636       .  S
C143        C504   1.788       .  S
C144        C917   1.677   1_455  S
C144        C453   1.647       .  S
C144        C709   1.620   1_455  S
C144        C503   1.793   1_556  S
C145        C146   1.386       .  A
C145        C150   1.411       .  A
C145        H152   1.085       .  S
C146        C147   1.383       .  A
C147        C154   1.518       .  S
C147        C148   1.388       .  A
C148        C149   1.413       .  A
C148        H153   1.034       .  S
C149        C383   1.607       .  S
C149        C150   1.464       .  A
C150        C631   1.538       .  S
C151        C630   1.553       .  S
C151        F155   1.388       .  S
C151        F156   1.358       .  S
C151        F157   1.379       .  S
C154        F158   1.381       .  S
C154        F159   1.383       .  S
C154        F160   1.384       .  S
C161        C162   1.379       .  A
C161        C166   1.401       .  A
C161        H168   1.088       .  S
C162        C163   1.400       .  A
C163        C170   1.518       .  S
C163        C164   1.410       .  A
C164        C165   1.420       .  A
C164        H169   1.053       .  S
C165        C863   1.615   1_545  S
C165        C166   1.465       .  A
C166        C167   1.531   1_545  S
C167        F171   1.383       .  S
C167        F172   1.366   1_455  S
C167        F173   1.379   1_565  S
C170        F174   1.377       .  S
C170        F175   1.381       .  S
C170        F176   1.382       .  S
C177        C178   1.382       .  A
C177        C182   1.410       .  A
C177        H184   1.086       .  S
C178        C179   1.406       .  A
C179        C186   1.519       .  S
C179        C180   1.422       .  A
C180        C181   1.424       .  A
C180        H185   1.047       .  S
C181        C182   1.489       .  A
C182        C183   1.547       .  S
C183        F187   1.390       .  S
C183        F188   1.381       .  S
C183        F189   1.362       .  S
C186        F190   1.381       .  S
C186        F191   1.384       .  S
C186        F192   1.381       .  S
C193        C194   1.390       .  A
C193        C198   1.409       .  A
C193        H200   1.086       .  S
C194        C195   1.403       .  A
C195        C202   1.525   1_545  S
C195        C196   1.400   1_545  A
C196        C197   1.442   1_565  A
C196        H441   1.066       .  S
C197        C864   1.630       .  S
C197        C198   1.459       .  A
C198        C679   1.512       .  S
C199        C678   1.528   1_455  S
C199        F203   1.385       .  S
C199        F204   1.348   1_556  S
C199        F205   1.383   1_456  S
H201        C436   1.068       .  S
C202        F446   1.381       .  S
C202        F207   1.383       .  S
C202        F448   1.385       .  S
F206        C442   1.383       .  S
F208        C442   1.385       .  S
C209        C210   1.394       .  A
C209        C214   1.426       .  A
C209        H216   1.080       .  S
C210        C211   1.402       .  A
C211        C218   1.523       .  S
C211        C212   1.411       .  A
C212        C213   1.427       .  A
C212        H217   1.041       .  S
C213        C384   1.653       .  S
C213        C214   1.479       .  A
C214        C215   1.540   1_545  S
C215        F219   1.386       .  S
C215        F460   1.370       .  S
C218        F222   1.384       .  S
C218        F223   1.381       .  S
C218        F224   1.383       .  S
F220        C455   1.372       .  S
C225        C226   1.376       .  A
C225        C230   1.403       .  A
C225        H232   1.086       .  S
C226        C227   1.389       .  A
C227        C234   1.520       .  S
C227        C228   1.403       .  A
C228        C229   1.429       .  A
C228        H233   1.034       .  S
C229        C624   1.625       .  S
C229        C230   1.464       .  A
C230        C711   1.529       .  S
C231        C710   1.516   1_455  S
C231        F235   1.385   1_455  S
C231        F236   1.383       .  S
C231        F237   1.365       .  S
C234        F238   1.384       .  S
C234        F239   1.381       .  S
C234        F240   1.384   1_556  S
O241        C256   1.263       .  A
O241       Al249   1.936       .  S
C242        O252   1.264       .  A
C242        O243   1.257       .  A
C242        C282   1.491       .  S
O243       Al245   1.893       .  S
O244        C246   1.265       .  A
O244       Al245   1.913       .  S
Al245       O253   1.929       .  S
Al245       O255   1.915       .  S
Al245       O254   1.788       .  S
C246        O259   1.258       .  A
C246        C266   1.452       .  S
O247        C257   1.262       .  A
O247       Al249   1.943       .  S
O248        C261   1.267       .  A
O248       Al258   1.915       .  S
Al249       O262   1.872       .  S
Al249       O259   1.859       .  S
Al249       O254   1.790       .  S
O250        C257   1.262       .  A
O250       Al258   1.912       .  S
O251        C260   1.260       .  A
O251       Al258   1.905       .  S
O252       Al258   1.927       .  S
O253        C260   1.265       .  A
O254       Al258   1.779       .  S
O255        C256   1.261       .  A
C256        C314   1.504       .  S
C257        C298   1.505       .  S
C260        C330   1.505       .  S
C261        O262   1.258       .  A
C261        C346   1.451       .  S
C263        C525   1.610       .  S
C263        C301   1.661   1_545  S
C263        C864   1.797   1_554  S
C264        C557   1.638   1_465  S
C264        C829   1.631   1_455  S
C264        C863   1.798       .  S
C265        C266   1.380       .  A
C265        C270   1.402       .  A
C265        H272   1.088       .  S
C266        C267   1.392       .  A
C267        C274   1.521       .  S
C267        C268   1.399       .  A
C268        C269   1.413       .  A
C268        H273   1.043       .  S
C269        C270   1.487       .  A
C270        C751   1.555       .  S
C271        C750   1.539       .  S
C271        F275   1.384       .  S
C271        F276   1.374       .  S
C271        F277   1.366       .  S
C274        F278   1.383       .  S
C274        F279   1.381       .  S
C274        F280   1.385       .  S
C281        C282   1.386       .  A
C281        C286   1.415       .  A
C281        H288   1.086       .  S
C282        C283   1.396       .  A
C283        C290   1.519       .  S
C283        C284   1.413       .  A
C284        C285   1.427       .  A
C284        H289   1.047       .  S
C285        C503   1.642       .  S
C285        C286   1.474       .  A
C286        C287   1.522       .  S
C287        F291   1.375       .  S
C287        F292   1.362       .  S
C287        F293   1.387       .  S
C290        F294   1.384       .  S
C290        F295   1.382       .  S
C290        F296   1.384       .  S
C297        C298   1.391       .  A
C297        C302   1.418       .  A
C297        H304   1.086       .  S
C298        C299   1.408       .  A
C299        C306   1.519       .  S
C299        C300   1.417       .  A
C300        C301   1.443       .  A
C300        H305   1.072       .  S
C301        C302   1.482       .  A
C302        C303   1.540       .  S
C303        F307   1.390       .  S
C303        F308   1.364       .  S
C303        F309   1.378       .  S
C306        F310   1.383       .  S
C306        F311   1.383       .  S
C306        F312   1.385       .  S
C313        C314   1.392       .  A
C313        C318   1.426       .  A
C313        H320   1.086       .  S
C314        C315   1.402       .  A
C315        C322   1.523       .  S
C315        C316   1.410       .  A
C316        C317   1.447       .  A
C317        C504   1.693       .  S
C317        C318   1.479       .  A
C318        C799   1.529       .  S
C319        C798   1.509   1_455  S
C319        F323   1.384       .  S
C319        F324   1.351       .  S
C319        F325   1.383       .  S
C322        F327   1.382       .  S
C329        C330   1.393       .  A
C329        C334   1.423       .  A
C329        H336   1.086       .  S
C330        C331   1.408       .  A
C331        C338   1.526       .  S
C331        C332   1.410       .  A
C332        C333   1.429       .  A
C332        H337   1.051       .  S
C333        C334   1.473       .  A
C334        C335   1.530       .  S
C335        F339   1.387       .  S
C335        F461   1.384       .  S
C338        F342   1.381       .  S
C338        F343   1.381       .  S
C338        F344   1.383       .  S
F341        C455   1.366   1_554  S
C345        C346   1.382       .  A
C345        C350   1.403       .  A
C345        H352   1.087       .  S
C346        C347   1.390       .  A
C347        C354   1.517       .  S
C347        C348   1.403       .  A
C348        C349   1.426       .  A
C348        H353   1.047       .  S
C349        C744   1.616   1_565  S
C349        C350   1.448       .  A
C350        C831   1.513       .  S
C351        C830   1.528   1_455  S
C351        F355   1.370   1_455  S
C351        F356   1.379       .  S
C351        F357   1.368   1_465  S
C354        F358   1.383       .  S
C354        F359   1.381       .  S
C354        F360   1.382       .  S
O361        C376   1.267       .  A
O361       Al369   1.927       .  S
C362        O372   1.264       .  A
C362        O363   1.253       .  A
C362        C402   1.454       .  S
O363       Al365   1.877       .  S
O364        C366   1.266       .  A
O364       Al365   1.930       .  S
Al365       O373   1.947       .  S
Al365       O375   1.882       .  S
Al365       O374   1.778       .  S
C366        O379   1.251       .  A
C366        C386   1.462       .  S
O367        C377   1.260       .  A
O367       Al369   1.908       .  S
O368        C381   1.263       .  A
O368       Al378   1.904       .  S
Al369       O382   1.880       .  S
Al369       O379   1.865       .  S
Al369       O374   1.775       .  S
O370        C377   1.262       .  A
O370       Al378   1.894       .  S
O371        C380   1.262       .  A
O371       Al378   1.904       .  S
O372       Al378   1.912       .  S
O373        C380   1.270       .  A
O374       Al378   1.766       .  S
O375        C376   1.257       .  A
C376        C434   1.476       .  S
C377        C418   1.465       .  S
C380        C450   1.504       .  S
C381        O382   1.257       .  A
C381        C466   1.452       .  S
C383        C645   1.640       .  S
C383        C421   1.615   1_545  S
C383        C744   1.786       .  S
C384        C677   1.697   1_455  S
C384        C949   1.601   1_445  S
C384        C743   1.787   1_546  S
C385        C386   1.389       .  A
C385        C390   1.401       .  A
C385        H392   1.086       .  S
C386        C387   1.397       .  A
C387        C394   1.519       .  S
C387        C388   1.401       .  A
C388        C389   1.423       .  A
C388        H393   1.075       .  S
C389        C390   1.457       .  A
C390        C871   1.528       .  S
C391        C870   1.555       .  S
C391        F395   1.388       .  S
C391        F396   1.359       .  S
C391        F397   1.381       .  S
C394        F398   1.381       .  S
C394        F399   1.381       .  S
C394        F400   1.385       .  S
C401        C402   1.375       .  A
C401        C406   1.396       .  A
C401        H408   1.088       .  S
C402        C403   1.394       .  A
C403        C410   1.520       .  S
C403        C404   1.410       .  A
C404        C405   1.425       .  A
C404        H409   1.052       .  S
C405        C623   1.603       .  S
C405        C406   1.459       .  A
C406        C407   1.528       .  S
C407        F411   1.382       .  S
C407        F412   1.368   1_455  S
C407        F413   1.383       .  S
C410        F414   1.380       .  S
C410        F415   1.383       .  S
C410        F416   1.383       .  S
C417        C418   1.386       .  A
C417        C422   1.401       .  A
C417        H424   1.087       .  S
C418        C419   1.405       .  A
C419        C426   1.517       .  S
C419        C420   1.410       .  A
C420        C421   1.418       .  A
C420        H425   1.054       .  S
C421        C422   1.473       .  A
C422        C423   1.549       .  S
C423        F427   1.390       .  S
C423        F428   1.372       .  S
C423        F429   1.379       .  S
C426        F430   1.383       .  S
C426        F431   1.382       .  S
C426        F432   1.384       .  S
C433        C434   1.388       .  A
C433        C438   1.409       .  A
C433        H440   1.086       .  S
C434        C435   1.403       .  A
C435        C442   1.524       .  S
C435        C436   1.401       .  A
C436        C437   1.441       .  A
C437        C624   1.640       .  S
C437        C438   1.464       .  A
C438        C919   1.513       .  S
C439        C918   1.527   1_455  S
C439        F443   1.384       .  S
C439        F444   1.346   1_556  S
C439        F445   1.384   1_456  S
C442        F447   1.382       .  S
C449        C450   1.395       .  A
C449        C454   1.427       .  A
C449        H456   1.081       .  S
C450        C451   1.406       .  A
C451        C458   1.526       .  S
C451        C452   1.409       .  A
C452        C453   1.427       .  A
C452        H457   1.043       .  S
C453        C454   1.474       .  A
C454        C455   1.539       .  S
C455        F459   1.386       .  S
C458        F462   1.384       .  S
C458        F463   1.383       .  S
C458        F464   1.382       .  S
C465        C466   1.386       .  A
C465        C470   1.405       .  A
C465        H472   1.087       .  S
C466        C467   1.386       .  A
C467        C474   1.522       .  S
C467        C468   1.396       .  A
C468        C469   1.422       .  A
C468        H473   1.039       .  S
C469        C864   1.623   1_565  S
C469        C470   1.467       .  A
C470        C951   1.540       .  S
C471        C950   1.519   1_455  S
C471        F475   1.385   1_455  S
C471        F476   1.381       .  S
C471        F477   1.368   1_565  S
C474        F478   1.384   1_556  S
C474        F479   1.383       .  S
C474        F480   1.382       .  S
O481        C496   1.264       .  A
O481       Al489   1.920       .  S
C482        O492   1.263       .  A
C482        O483   1.255       .  A
C482        C522   1.466       .  S
O483       Al485   1.891       .  S
O484        C486   1.268       .  A
O484       Al485   1.930       .  S
Al485       O493   1.944       .  S
Al485       O495   1.891       .  S
Al485       O494   1.777       .  S
C486        O499   1.251       .  A
C486        C506   1.459       .  S
O487        C497   1.259       .  A
O487       Al489   1.910       .  S
O488        C501   1.264       .  A
O488       Al498   1.909       .  S
Al489       O502   1.882       .  S
Al489       O499   1.856       .  S
Al489       O494   1.781       .  S
O490        C497   1.263       .  A
O490       Al498   1.898       .  S
O491        C500   1.261       .  A
O491       Al498   1.896       .  S
O492       Al498   1.915       .  S
O493        C500   1.270       .  A
O494       Al498   1.764       .  S
O495        C496   1.257       .  A
C496        C554   1.480       .  S
C497        C538   1.465       .  S
C500        C570   1.499       .  S
C501        O502   1.256       .  A
C501        C586   1.453       .  S
C503        C749   1.606   1_455  S
C503        C541   1.628   1_455  S
C504        C813   1.653       .  S
C505        C506   1.389       .  A
C505        C510   1.401   1_655  A
C505        H512   1.086       .  S
C506        C507   1.394       .  A
C507        C514   1.519       .  S
C507        C508   1.399       .  A
C508        C509   1.424       .  A
C508        H513   1.076   1_545  S
C509        C743   1.576   1_645  S
C509        C510   1.460   1_655  A
C511        F515   1.387       .  S
C511        F516   1.357       .  S
C511        F517   1.382       .  S
C514        F518   1.382       .  S
C514        F519   1.381       .  S
C514        F520   1.384   1_545  S
C521        C522   1.378       .  A
C521        C526   1.401       .  A
C521        H528   1.088       .  S
C522        C523   1.401       .  A
C523        C530   1.521       .  S
C523        C524   1.414       .  A
C524        C525   1.427       .  A
C524        H529   1.052   1_554  S
C525        C526   1.462       .  A
C526        C527   1.529       .  S
C527        F531   1.382   1_545  S
C527        F532   1.368   1_545  S
C527        F533   1.383       .  S
C530        F534   1.381   1_554  S
C530        F535   1.381       .  S
C530        F536   1.383       .  S
C537        C538   1.382       .  A
C537        C542   1.397       .  A
C537        H544   1.088       .  S
C538        C539   1.408       .  A
C539        C546   1.515       .  S
C539        C540   1.417       .  A
C540        C541   1.420       .  A
C540        H545   1.060   1_655  S
C541        C542   1.478       .  A
C542        C543   1.554       .  S
C543        F547   1.391       .  S
C543        F548   1.374       .  S
C543        F549   1.379       .  S
C546        F550   1.384       .  S
C546        F551   1.383       .  S
C546        F552   1.382       .  S
C553        C554   1.389       .  A
C553        C558   1.409       .  A
C553        H560   1.086       .  S
C554        C555   1.403       .  A
C555        C562   1.523   1_545  S
C555        C556   1.404   1_545  A
C556        C557   1.440   1_565  A
C556        H801   1.066       .  S
C557        C558   1.464       .  A
C559        F563   1.385       .  S
C559        F564   1.346       .  S
C559        F565   1.384       .  S
H561        C796   1.068       .  S
C562        F806   1.383       .  S
C562        F567   1.383       .  S
C562        F808   1.385       .  S
F566        C802   1.382       .  S
F568        C802   1.386       .  S
C569        C570   1.393       .  A
C569        C574   1.426       .  A
C569        H576   1.081       .  S
C570        C571   1.404       .  A
C571        C578   1.525       .  S
C571        C572   1.405       .  A
C572        C573   1.423       .  A
C572        H577   1.041       .  S
C573        C744   1.646       .  S
C573        C574   1.479       .  A
C574        C575   1.541   1_545  S
C575        F579   1.386       .  S
C575        F820   1.370       .  S
C575        F701   1.370       .  S
C578        F582   1.384       .  S
C578        F583   1.382       .  S
C578        F584   1.383       .  S
F580        C815   1.372       .  S
F581        C695   1.384       .  S
C585        C586   1.385       .  A
C585        C590   1.402       .  A
C585        H592   1.087       .  S
C586        C587   1.390       .  A
C587        C594   1.520       .  S
C587        C588   1.401       .  A
C588        C589   1.424       .  A
C588        H593   1.034       .  S
C589        C590   1.461       .  A
C591        F595   1.384       .  S
C591        F596   1.383       .  S
C591        F597   1.365       .  S
C594        F598   1.384       .  S
C594        F599   1.382       .  S
C594        F600   1.383       .  S
O601        C616   1.265       .  A
O601       Al609   1.938       .  S
C602        O612   1.266       .  A
C602        O603   1.259       .  A
C602        C642   1.491       .  S
O603       Al605   1.898       .  S
O604        C606   1.263       .  A
O604       Al605   1.914       .  S
Al605       O613   1.926       .  S
Al605       O615   1.913       .  S
Al605       O614   1.794       .  S
C606        O619   1.260       .  A
C606        C626   1.458       .  S
O607        C617   1.264       .  A
O607       Al609   1.954       .  S
O608        C621   1.268       .  A
O608       Al618   1.925       .  S
Al609       O622   1.882       .  S
Al609       O619   1.874       .  S
Al609       O614   1.792       .  S
O610        C617   1.262       .  A
O610       Al618   1.911       .  S
O611        C620   1.260       .  A
O611       Al618   1.909       .  S
O612       Al618   1.929       .  S
O613        C620   1.264       .  A
O614       Al618   1.781       .  S
O615        C616   1.262       .  A
C616        C674   1.501       .  S
C617        C658   1.513       .  S
C620        C690   1.507       .  S
C621        O622   1.258       .  A
C621        C706   1.465       .  S
C623        C869   1.639   1_455  S
C623        C661   1.660   1_455  S
C624        C933   1.631       .  S
C625        C626   1.382       .  A
C625        C630   1.406   1_655  A
C625        H632   1.088   1_655  S
C626        C627   1.392       .  A
C627        C634   1.521       .  S
C627        C628   1.401       .  A
C628        C629   1.414       .  A
C628        H633   1.040       .  S
C629        C863   1.626   1_645  S
C629        C630   1.484   1_655  A
C631        F635   1.386       .  S
C631        F636   1.373       .  S
C631        F637   1.369       .  S
C634        F638   1.383       .  S
C634        F639   1.382       .  S
C634        F640   1.385       .  S
C641        C642   1.388       .  A
C641        C646   1.417   1_545  A
C641        H648   1.086   1_545  S
C642        C643   1.396       .  A
C643        C650   1.518       .  S
C643        C644   1.410       .  A
C644        C645   1.426       .  A
C644        H649   1.051       .  S
C645        C646   1.472   1_545  A
C646        C647   1.526       .  S
C647        F651   1.376       .  S
C647        F652   1.367       .  S
C647        F653   1.385       .  S
C650        F654   1.384       .  S
C650        F655   1.382       .  S
C650        F656   1.384       .  S
C657        C658   1.393       .  A
C657        C662   1.421       .  A
C657        H664   1.085       .  S
C658        C659   1.409       .  A
C659        C666   1.518   1_655  S
C659        C660   1.421       .  A
C660        C661   1.442       .  A
C660        H665   1.072   1_655  S
C661        C662   1.479       .  A
C662        C663   1.535       .  S
C663        F667   1.389       .  S
C663        F668   1.367       .  S
C663        F669   1.377       .  S
C666        F670   1.384   1_455  S
C666        F671   1.383       .  S
C666        F672   1.385       .  S
C673        C674   1.391       .  A
C673        C678   1.427       .  A
C673        H680   1.086       .  S
C674        C675   1.401       .  A
C675        C682   1.523   1_545  S
C675        C676   1.408       .  A
C676        C677   1.446       .  A
C676        H921   1.059   1_545  S
C677        C678   1.481       .  A
C679        F683   1.384       .  S
C679        F684   1.359       .  S
C679        F685   1.382   1_556  S
H681        C916   1.063       .  S
C682        F926   1.383       .  S
C682        F687   1.382       .  S
C682        F928   1.386       .  S
F686        C922   1.382       .  S
F688        C922   1.385       .  S
C689        C690   1.392       .  A
C689        C694   1.420       .  A
C689        H696   1.086       .  S
C690        C691   1.409       .  A
C691        C698   1.526       .  S
C691        C692   1.415       .  A
C692        C693   1.431       .  A
C692        H697   1.051       .  S
C693        C864   1.636       .  S
C693        C694   1.472       .  A
C694        C695   1.524   1_545  S
C695        F699   1.385       .  S
C695        F940   1.349       .  S
C698        F702   1.381       .  S
C698        F703   1.381       .  S
C698        F704   1.383       .  S
F700        C935   1.358       .  S
C705        C706   1.383       .  A
C705        C710   1.406       .  A
C705        H712   1.087       .  S
C706        C707   1.395       .  A
C707        C714   1.517       .  S
C707        C708   1.409       .  A
C708        C709   1.427       .  A
C708        H713   1.051       .  S
C709        C710   1.453       .  A
C711        F715   1.367       .  S
C711        F716   1.376       .  S
C711        F717   1.366       .  S
C714        F718   1.383       .  S
C714        F719   1.381       .  S
C714        F720   1.384   1_556  S
O721        C736   1.267       .  A
O721       Al729   1.927       .  S
C722        O732   1.265       .  A
C722        O723   1.257       .  A
C722        C762   1.460       .  S
O723       Al725   1.890       .  S
O724        C726   1.264       .  A
O724       Al725   1.928       .  S
Al725       O733   1.940       .  S
Al725       O735   1.887       .  S
Al725       O734   1.781       .  S
C726        O739   1.250       .  A
C726        C746   1.449       .  S
O727        C737   1.266       .  A
O727       Al729   1.940       .  S
O728        C741   1.266       .  A
O728       Al738   1.925       .  S
Al729       O742   1.868       .  S
Al729       O739   1.852       .  S
Al729       O734   1.775       .  S
O730        C737   1.261       .  A
O730       Al738   1.905       .  S
O731        C740   1.261       .  A
O731       Al738   1.904       .  S
O732       Al738   1.911       .  S
O733        C740   1.269       .  A
O734       Al738   1.768       .  S
O735        C736   1.258       .  A
C736        C794   1.475       .  S
C737        C778   1.493       .  S
C740        C810   1.505       .  S
C741        O742   1.252       .  A
C741        C826   1.457       .  S
C743        C781   1.632   1_455  S
C745        C746   1.384       .  A
C745        C750   1.413   1_655  A
C745        H752   1.084       .  S
C746        C747   1.380       .  A
C747        C754   1.515       .  S
C747        C748   1.390       .  A
C748        C749   1.413       .  A
C748        H753   1.042       .  S
C749        C750   1.470   1_655  A
C751        F755   1.387       .  S
C751        F756   1.360       .  S
C751        F757   1.381       .  S
C754        F758   1.382       .  S
C754        F759   1.383       .  S
C754        F760   1.382   1_554  S
C761        C762   1.378       .  A
C761        C766   1.399       .  A
C761        H768   1.088       .  S
C762        C763   1.397       .  A
C763        C770   1.516       .  S
C763        C764   1.406       .  A
C764        C765   1.418       .  A
C764        H769   1.054       .  S
C765        C766   1.465       .  A
C766        C767   1.534       .  S
C767        F771   1.382       .  S
C767        F772   1.367       .  S
C767        F773   1.383       .  S
C770        F774   1.377       .  S
C770        F775   1.381       .  S
C770        F776   1.381   1_554  S
C777        C778   1.380       .  A
C777        C782   1.408       .  A
C777        H784   1.087       .  S
C778        C779   1.403       .  A
C779        C786   1.517       .  S
C779        C780   1.422       .  A
C780        C781   1.427       .  A
C780        H785   1.051   1_655  S
C781        C782   1.488       .  A
C782        C783   1.547       .  S
C783        F787   1.390       .  S
C783        F788   1.380       .  S
C783        F789   1.360       .  S
C786        F790   1.382       .  S
C786        F791   1.381       .  S
C786        F792   1.383   1_655  S
C793        C794   1.387       .  A
C793        C798   1.407       .  A
C793        H800   1.086       .  S
C794        C795   1.404       .  A
C795        C802   1.524       .  S
C795        C796   1.402       .  A
C796        C797   1.442       .  A
C797        C798   1.460       .  A
C799        F803   1.383       .  S
C799        F804   1.348       .  S
C799        F805   1.384       .  S
C802        F807   1.382       .  S
C809        C810   1.389       .  A
C809        C814   1.421       .  A
C809        H816   1.080       .  S
C810        C811   1.407       .  A
C811        C818   1.523       .  S
C811        C812   1.416       .  A
C812        C813   1.427       .  A
C812        H817   1.046       .  S
C813        C814   1.477       .  A
C814        C815   1.536       .  S
C815        F819   1.386       .  S
C815        F941   1.368       .  S
C818        F822   1.384       .  S
C818        F823   1.382       .  S
C818        F824   1.380       .  S
F821        C935   1.383       .  S
C825        C826   1.381       .  A
C825        C830   1.407       .  A
C825        H832   1.086       .  S
C826        C827   1.393       .  A
C827        C834   1.523       .  S
C827        C828   1.401       .  A
C828        C829   1.425       .  A
C828        H833   1.030       .  S
C829        C830   1.464       .  A
C831        F835   1.385       .  S
C831        F836   1.383       .  S
C831        F837   1.365   1_565  S
C834        F838   1.382       .  S
C834        F839   1.382       .  S
C834        F840   1.383       .  S
O841        C856   1.263       .  A
O841       Al849   1.923       .  S
C842        O852   1.262       .  A
C842        O843   1.257       .  A
C842        C882   1.479       .  S
O843       Al845   1.886       .  S
O844        C846   1.262       .  A
O844       Al845   1.910       .  S
Al845       O853   1.928       .  S
Al845       O855   1.906       .  S
Al845       O854   1.785       .  S
C846        O859   1.259       .  A
C846        C866   1.460       .  S
O847        C857   1.263       .  A
O847       Al849   1.942       .  S
O848        C861   1.263       .  A
O848       Al858   1.904       .  S
Al849       O862   1.885       .  S
Al849       O859   1.873       .  S
Al849       O854   1.787       .  S
O850        C857   1.259       .  A
O850       Al858   1.898       .  S
O851        C860   1.258       .  A
O851       Al858   1.900       .  S
O852       Al858   1.914       .  S
O853        C860   1.264       .  A
O854       Al858   1.780       .  S
O855        C856   1.261       .  A
C856        C914   1.490       .  S
C857        C898   1.501       .  S
C860        C930   1.497       .  S
C861        O862   1.258       .  A
C861        C946   1.456       .  S
C863        C901   1.644   1_455  S
C865        C866   1.379       .  A
C865        C870   1.405   1_655  A
C865        H872   1.088   1_655  S
C866        C867   1.394       .  A
C867        C874   1.521       .  S
C867        C868   1.404       .  A
C868        C869   1.415       .  A
C868        H873   1.041       .  S
C869        C870   1.491   1_655  A
C871        F875   1.387       .  S
C871        F876   1.377       .  S
C871        F877   1.363       .  S
C874        F878   1.384       .  S
C874        F879   1.381       .  S
C874        F880   1.384       .  S
C881        C882   1.382       .  A
C881        C886   1.410       .  A
C881        H888   1.087       .  S
C882        C883   1.396       .  A
C883        C890   1.520       .  S
C883        C884   1.409       .  A
C884        C885   1.423       .  A
C884        H889   1.047       .  S
C885        C886   1.479       .  A
C886        C887   1.538       .  S
C887        F891   1.380       .  S
C887        F892   1.361       .  S
C887        F893   1.387       .  S
C890        F894   1.384       .  S
C890        F895   1.382       .  S
C890        F896   1.382       .  S
C897        C898   1.392       .  A
C897        C902   1.415       .  A
C897        H904   1.086       .  S
C898        C899   1.410       .  A
C899        C906   1.519   1_655  S
C899        C900   1.416       .  A
C900        C901   1.436       .  A
C900        H905   1.070   1_655  S
C901        C902   1.475       .  A
C902        C903   1.540       .  S
C903        F907   1.389       .  S
C903        F908   1.370       .  S
C903        F909   1.378       .  S
C906        F910   1.383   1_455  S
C906        F911   1.382       .  S
C906        F912   1.385       .  S
C913        C914   1.390       .  A
C913        C918   1.419       .  A
C913        H920   1.086       .  S
C914        C915   1.401       .  A
C915        C922   1.524       .  S
C915        C916   1.405       .  A
C916        C917   1.447       .  A
C917        C918   1.477       .  A
C919        F923   1.385       .  S
C919        F924   1.354       .  S
C919        F925   1.383   1_556  S
C922        F927   1.383       .  S
C929        C930   1.395       .  A
C929        C934   1.423       .  A
C929        H936   1.086       .  S
C930        C931   1.405       .  A
C931        C938   1.528       .  S
C931        C932   1.405       .  A
C932        C933   1.428       .  A
C932        H937   1.046       .  S
C933        C934   1.475       .  A
C934        C935   1.533       .  S
C935        F939   1.387       .  S
C938        F942   1.381       .  S
C938        F943   1.380       .  S
C938        F944   1.383       .  S
C945        C946   1.381       .  A
C945        C950   1.395       .  A
C945        H952   1.088       .  S
C946        C947   1.403       .  A
C947        C954   1.516       .  S
C947        C948   1.409       .  A
C948        C949   1.428       .  A
C948        H953   1.072       .  S
C949        C950   1.449       .  A
C951        F955   1.385       .  S
C951        F956   1.373   1_565  S
C951        F957   1.364   1_565  S
C954        F958   1.382       .  S
C954        F959   1.380       .  S
C954        F960   1.384   1_556  S
