geometry optimzed in LAMMPS
_audit_creation_date              2020-12-01 
_audit_creation_method            'lammps2cif' 
_symmetry_space_group_name_H-M    'P1' 
_symmetry_Int_Tables_number       1 
_symmetry_cell_setting            triclinic 
loop_ 
_symmetry_equiv_pos_as_xyz 
  x,y,z 
_cell_length_a                    38.55252488 
_cell_length_b                    38.56532639225911 
_cell_length_c                    38.528441753839196 
_cell_angle_alpha                 90.02874963410832 
_cell_angle_beta                  90.0066687668261 
_cell_angle_gamma                 90.06452063636047 
loop_ 
_atom_site_label 
_atom_site_type_symbol 
_atom_site_fract_x 
_atom_site_fract_y 
_atom_site_fract_z 
_atom_site_charge 
C1          C  0.18786665  0.80605632  0.52182510     0.82100
N2          N  0.16485590  0.83252427  0.51986609    -0.76300
C3          C  0.15665230  0.84675471  0.48867218     0.84500
N4          N  0.17176495  0.83425746  0.45936952    -0.76200
C5          C  0.19475157  0.80762669  0.46128238     0.84600
N6          N  0.20284609  0.79357724  0.49252942    -0.77900
C7          C  0.86023205  0.15016346  0.52700873     0.82100
N8          N  0.84460960  0.16119284  0.49740599    -0.76300
C9          C  0.85313629  0.14660784  0.46646637     0.84500
N10         N  0.87730474  0.12102907  0.46520641    -0.76200
C11         C  0.89295297  0.10983537  0.49474799     0.84600
N12         N  0.88429686  0.12452916  0.52564168    -0.77900
C13         C  0.85645321  0.80701561  0.53450067     0.82100
N14         N  0.84520257  0.79318788  0.50417296    -0.76300
C15         C  0.85851035  0.80447171  0.47368293     0.84500
N16         N  0.88319176  0.82955007  0.47348106    -0.76200
C17         C  0.89455749  0.84367786  0.50371432     0.84600
N18         N  0.88114369  0.83226926  0.53436871    -0.77900
C19         C  0.55774771  0.80884886  0.17402947     0.82100
N20         N  0.56103346  0.83467186  0.15042095    -0.76300
C21         C  0.53280522  0.84701126  0.13346618     0.84500
N22         N  0.50092585  0.83345217  0.14055111    -0.76200
C23         C  0.49756403  0.80771194  0.16448738     0.84600
N24         N  0.52602790  0.79540412  0.18114025    -0.77900
C25         C  0.85458120  0.50939512  0.16605238     0.82100
N26         N  0.84053246  0.48047466  0.18033452    -0.76300
C27         C  0.85128521  0.44870602  0.16986256     0.84500
N28         N  0.87610805  0.44584589  0.14506427    -0.76200
C29         C  0.89033637  0.47466594  0.13063562     0.84600
N30         N  0.87944909  0.50654548  0.14120291    -0.77900
C31         C  0.85238769  0.44787649  0.83441498     0.82100
N32         N  0.87719285  0.45206852  0.85914338    -0.76300
C33         C  0.88505244  0.48434313  0.87111140     0.84500
N34         N  0.86794841  0.51220535  0.85820765    -0.76200
C35         C  0.84326994  0.50808209  0.83349162     0.84600
N36         N  0.83542056  0.47591414  0.82158603    -0.77900
C37         C  0.56066962  0.14634573  0.82469054     0.82100
N38         N  0.56325830  0.12013701  0.84796809    -0.76300
C39         C  0.53464155  0.10790928  0.86439164     0.84500
N40         N  0.50306193  0.12191983  0.85709558    -0.76200
C41         C  0.50031369  0.14801344  0.83350464     0.84600
N42         N  0.52917813  0.16026802  0.81737326    -0.77900
C43         C  0.19717850  0.45296414  0.82754445     0.82100
N44         N  0.17205278  0.44900616  0.85185341    -0.76300
C45         C  0.15580710  0.47708815  0.86546453     0.84500
N46         N  0.16501161  0.50941734  0.85461839    -0.76200
C47         C  0.19023095  0.51343817  0.83027376     0.84600
N48         N  0.20629091  0.48518138  0.81674921    -0.77900
C49         C  0.48641779  0.81536279  0.81871785     0.82100
N50         N  0.48387765  0.83957579  0.84411619    -0.76300
C51         C  0.51279251  0.85162953  0.86019445     0.84500
N52         N  0.54442315  0.83924218  0.85061445    -0.76200
C53         C  0.54691797  0.81498390  0.82514613     0.84600
N54         N  0.51791042  0.80306193  0.80921735    -0.77900
C55         C  0.04719685  0.30418752  0.33062213     0.82100
N56         N  0.05007442  0.32714034  0.35708911    -0.76300
C57         C  0.02138985  0.34175821  0.37118219     0.84500
N58         N  0.98948694  0.33293427  0.35880762    -0.76200
C59         C  0.98656489  0.30960846  0.33246585     0.84600
N60         N  0.01545391  0.29532460  0.31832282    -0.77900
O61         O  0.30237163  0.17321973  0.22886281    -0.86500
C62         C  0.29675002  0.21075693  0.32750683     0.89500
Mg63       Mg  0.31748317  0.20492187  0.18577454     1.58100
O64         O  0.21599392  0.19799113  0.28742839    -0.86200
O65         O  0.25783432  0.14169455  0.24483075    -0.73600
C66         C  0.22500470  0.34921517  0.20223236     0.94600
O67         O  0.34900112  0.23207705  0.26472920    -0.73400
O68         O  0.25421838  0.33894482  0.19097738    -0.80900
Mg69       Mg  0.33547237  0.17472853  0.27388906     1.58000
C70         C  0.14009630  0.27254333  0.29321561     0.94500
O71         O  0.32825818  0.11655417  0.28627888    -0.79200
H72         H  0.18192253  0.16666227  0.26401387    -0.04500
C73         C  0.25323084  0.29676064  0.28453809     0.89400
O74         O  0.26049955  0.21424310  0.17112994    -0.73700
O75         O  0.29145453  0.18879702  0.30470335    -0.86400
O76         O  0.15901434  0.25427588  0.31318395    -0.79200
C77         C  0.21457599  0.18060697  0.37887406     0.94600
C78         C  0.30850772  0.09745310  0.30467188     0.94500
Mg79       Mg  0.19858079  0.27184154  0.23312520     1.58000
O80         O  0.20512860  0.33004842  0.22042371    -0.79200
O81         O  0.18546920  0.21451003  0.24244384    -0.73400
O82         O  0.23355968  0.16135694  0.35990127    -0.79200
O83         O  0.38296721  0.16111374  0.24213288    -0.81000
O84         O  0.30062216  0.28562083  0.14741377    -0.79300
C85         C  0.19376077  0.19206743  0.26507149     0.88900
O86         O  0.24283474  0.25809662  0.20261188    -0.86400
O87         O  0.23156918  0.27391868  0.27831191    -0.86500
O88         O  0.27603837  0.30557998  0.26243878    -0.73600
Mg89       Mg  0.24723104  0.15467470  0.30205120     1.58000
O90         O  0.20235201  0.20934716  0.36833659    -0.81000
H91         H  0.27996720  0.13881296  0.19714583    -0.04700
O92         O  0.31834650  0.24909178  0.21999451    -0.86200
H93         H  0.35260764  0.28012110  0.24356962    -0.04500
H94         H  0.21257069  0.23552793  0.16702196    -0.04700
C95         C  0.34065535  0.25477529  0.24235383     0.88900
C96         C  0.28049917  0.15058740  0.22261191     0.89500
C97         C  0.23764593  0.23639337  0.17956081     0.89500
H98         H  0.25349909  0.30873538  0.30991588    -0.04700
O99         O  0.27392884  0.23298188  0.33586902    -0.73700
Mg100      Mg  0.28685910  0.29237772  0.20531075     1.58000
H101        H  0.32190429  0.21178591  0.33987596    -0.04700
C102        C  0.39413135  0.17378442  0.21381276     0.94500
O103        O  0.33209736  0.23774322  0.13921685    -0.80900
C104        C  0.31979072  0.26639562  0.12858291     0.94600
O105        O  0.27951974  0.10786877  0.31634752    -0.80900
Mg106      Mg  0.21683641  0.24217566  0.32153082     1.58200
O107        O  0.37546808  0.19262094  0.19410481    -0.79200
O108        O  0.15094180  0.28490547  0.26464113    -0.80900
C109        C  0.34639291  0.00377845  0.33519812     0.82100
N110        N  0.36902646  0.00446473  0.36216622    -0.76300
C111        C  0.38462212  0.97486981  0.37312134     0.84500
N112        N  0.37705502  0.94429167  0.35704588    -0.76200
C113        C  0.35401580  0.94350010  0.33026822     0.84600
N114        N  0.33883344  0.97329221  0.31931967    -0.77900
O115        O  0.31116020  0.75065498  0.19182777    -0.86500
C116        C  0.30841498  0.65138127  0.22899566     0.89500
Mg117      Mg  0.32525469  0.79408735  0.22397259     1.58100
O118        O  0.22626353  0.68944915  0.21795866    -0.86200
O119        O  0.26685610  0.73323323  0.16075193    -0.73600
C120        C  0.23524676  0.77423693  0.36964617     0.94600
O121        O  0.35985526  0.71604436  0.24990172    -0.73400
O122        O  0.26421392  0.78600549  0.35919064    -0.80900
Mg123      Mg  0.34563402  0.70658935  0.19277767     1.58000
C124        C  0.15199061  0.68010752  0.29570601     0.94500
O125        O  0.33831870  0.69325941  0.13482677    -0.79200
H126        H  0.19077560  0.71198254  0.18763036    -0.04500
C127        C  0.26529909  0.69242494  0.31627692     0.89400
O128        O  0.26795657  0.80651012  0.23451658    -0.73700
O129        O  0.30241119  0.67428526  0.20738353    -0.86400
O130        O  0.17072861  0.66105258  0.27625856    -0.79200
C131        C  0.22543387  0.59849141  0.19958625     0.94600
C132        C  0.31900217  0.67402633  0.11608762     0.94500
Mg133      Mg  0.20867266  0.74226786  0.29296840     1.58000
O134        O  0.21587643  0.75519824  0.35082976    -0.79200
O135        O  0.19446642  0.73292795  0.23581310    -0.73400
O136        O  0.24422230  0.61752717  0.18011529    -0.79200
O137        O  0.39192832  0.74039622  0.17821318    -0.81000
O138        O  0.30933034  0.83056676  0.30618203    -0.79300
C139        C  0.20316782  0.71103470  0.21278457     0.88900
O140        O  0.25182430  0.77425947  0.27842661    -0.86400
O141        O  0.24303925  0.69819435  0.29392813    -0.86500
O142        O  0.28760866  0.71511276  0.32485497    -0.73600
Mg143      Mg  0.25752787  0.67576884  0.17385204     1.58000
O144        O  0.21420084  0.60865615  0.22887296    -0.81000
H145        H  0.28766997  0.78147399  0.15740404    -0.04700
O146        O  0.32784204  0.75933882  0.26780536    -0.86200
H147        H  0.36355352  0.73705977  0.29805127    -0.04500
H148        H  0.22013735  0.80881244  0.25636806    -0.04700
C149        C  0.35109230  0.73791178  0.27292757     0.88900
C150        C  0.28896451  0.75614155  0.16933806     0.89500
C151        C  0.24563103  0.79717241  0.25688341     0.89500
H152        H  0.26652474  0.66699400  0.32800737    -0.04700
O153        O  0.28595308  0.64220251  0.25131625    -0.73700
Mg154      Mg  0.29663359  0.77255851  0.31198983     1.58000
H155        H  0.33381961  0.63955188  0.22956706    -0.04700
C156        C  0.40206919  0.76944765  0.19019743     0.94500
O157        O  0.33934979  0.84072394  0.25770025    -0.80900
C158        C  0.32787677  0.85021206  0.28718171     0.94600
O159        O  0.29012853  0.66207289  0.12668018    -0.80900
Mg160      Mg  0.22865953  0.65498917  0.26201020     1.58200
O161        O  0.38311407  0.78826731  0.20967149    -0.79200
O162        O  0.16242194  0.70903927  0.30758756    -0.80900
O163        O  0.81725473  0.26634028  0.22432802    -0.86500
C164        C  0.77852354  0.25864993  0.32236785     0.89500
Mg165      Mg  0.78562379  0.28016828  0.18086193     1.58100
O166        O  0.79501626  0.17835958  0.28213298    -0.86200
O167        O  0.85037123  0.22319151  0.24048466    -0.73600
C168        C  0.64401064  0.18175207  0.19549339     0.94600
O169        O  0.75599790  0.31069580  0.25919591    -0.73400
O170        O  0.65332216  0.21119349  0.18382599    -0.80900
Mg171      Mg  0.81366495  0.29934969  0.26932582     1.58000
C172        C  0.72131681  0.09976110  0.28814454     0.94500
O173        O  0.87169060  0.29483903  0.28277940    -0.79200
H174        H  0.82771217  0.14550022  0.25893394    -0.04500
C175        C  0.69493650  0.21185774  0.27821913     0.89400
O176        O  0.77836986  0.22288239  0.16608949    -0.73700
O177        O  0.80085680  0.25451514  0.29973121    -0.86400
O178        O  0.73961136  0.11892639  0.30795654    -0.79200
C179        C  0.81201240  0.17685870  0.37365784     0.94600
C180        C  0.89129093  0.27586344  0.30135541     0.94500
Mg181      Mg  0.72207372  0.15819884  0.22725390     1.58000
O182        O  0.66385769  0.16292214  0.21401480    -0.79200
O183        O  0.77981161  0.14706338  0.23715350    -0.73400
O184        O  0.83042569  0.19713446  0.35515102    -0.79200
O185        O  0.82665734  0.34698126  0.23761716    -0.81000
O186        O  0.70564527  0.26101481  0.14118009    -0.79300
C187        C  0.80187929  0.15634590  0.25983048     0.88900
O188        O  0.73472913  0.20305254  0.19661551    -0.86400
O189        O  0.71864655  0.19111251  0.27234553    -0.86500
O190        O  0.68546427  0.23416380  0.25589822    -0.73600
Mg191      Mg  0.83688383  0.21174391  0.29741622     1.58000
O192        O  0.78371144  0.16375304  0.36283928    -0.81000
H193        H  0.85322492  0.24591565  0.19308423    -0.04700
O194        O  0.74082958  0.27921627  0.21436822    -0.86200
H195        H  0.70816672  0.31232258  0.23725843    -0.04500
H196        H  0.75934887  0.17403021  0.16139816    -0.04700
C197        C  0.73395925  0.30137001  0.23651628     0.88900
C198        C  0.84095957  0.24564632  0.21831653     0.89500
C199        C  0.75711983  0.19897250  0.17401905     0.89500
H200        H  0.68264140  0.21171150  0.30343630    -0.04700
O201        O  0.75741608  0.23469585  0.33052404    -0.73700
Mg202      Mg  0.69880680  0.24588103  0.19893375     1.58000
H203        H  0.77622986  0.28366404  0.33483418    -0.04700
C204        C  0.81529994  0.35741470  0.20849707     0.94500
O205        O  0.75279549  0.29405519  0.13434051    -0.80900
C206        C  0.72452094  0.28134041  0.12313517     0.94600
O207        O  0.88197201  0.24629781  0.31254172    -0.80900
Mg208      Mg  0.75046350  0.17732931  0.31593954     1.58200
O209        O  0.79687607  0.33843968  0.18865516    -0.79200
O210        O  0.70952320  0.11024754  0.25917136    -0.80900
C211        C  0.69052069  0.00665599  0.32773864     0.82100
N212        N  0.66501785  0.00802514  0.35204007    -0.76300
C213        C  0.65371623  0.97854250  0.36772324     0.84500
N214        N  0.66810379  0.94760570  0.35883908    -0.76200
C215        C  0.69353970  0.94614808  0.33453063     0.84600
N216        N  0.70476238  0.97568526  0.31898084    -0.77900
O217        O  0.74052180  0.77841329  0.23110249    -0.86500
C218        C  0.74563109  0.73733949  0.32805136     0.89500
Mg219      Mg  0.72683387  0.74845493  0.18651391     1.58100
O220        O  0.82635705  0.75227147  0.28854219    -0.86200
O221        O  0.78401990  0.81057130  0.24827486    -0.73600
C222        C  0.82010854  0.60432955  0.19719800     0.94600
O223        O  0.69461957  0.71724018  0.26384377    -0.73400
O224        O  0.79106931  0.61487657  0.18576426    -0.80900
Mg225      Mg  0.70687564  0.77436817  0.27554097     1.58000
C226        C  0.90277061  0.67677622  0.29336130     0.94500
O227        O  0.71286359  0.83192048  0.29026494    -0.79200
H228        H  0.86079391  0.78447746  0.26693436    -0.04500
C229        C  0.79037905  0.65286405  0.28168228     0.89400
O230        O  0.78419563  0.74059032  0.17257761    -0.73700
O231        O  0.75079090  0.76014365  0.30610362    -0.86400
O232        O  0.88379306  0.69502315  0.31330928    -0.79200
C233        C  0.82775951  0.76681086  0.38004053     0.94600
C234        C  0.73218189  0.85111095  0.30899996     0.94500
Mg235      Mg  0.84544059  0.68012196  0.23230861     1.58000
O236        O  0.83924372  0.62264483  0.21697817    -0.79200
O237        O  0.85827302  0.73714061  0.24405017    -0.73400
O238        O  0.80838733  0.78644877  0.36194943    -0.79200
O239        O  0.65967240  0.78842458  0.24382919    -0.81000
O240        O  0.74453994  0.66948347  0.14488566    -0.79300
C241        C  0.84910056  0.75898483  0.26695043     0.88900
O242        O  0.80178161  0.69505893  0.20160440    -0.86400
O243        O  0.81162117  0.67636419  0.27669379    -0.86500
O244        O  0.76813295  0.64448916  0.25885094    -0.73600
Mg245      Mg  0.79454493  0.79501136  0.30470331     1.58000
O246        O  0.83984999  0.73833450  0.36869874    -0.81000
H247        H  0.76132875  0.81514740  0.20099909    -0.04700
O248        O  0.72603401  0.70274552  0.21872877    -0.86200
H249        H  0.69214562  0.67011005  0.24054900    -0.04500
H250        H  0.83242941  0.72009976  0.16809087    -0.04700
C251        C  0.70360746  0.69570828  0.24056839     0.88900
C252        C  0.76145317  0.80211137  0.22583400     0.89500
C253        C  0.80712890  0.71818688  0.18004382     0.89500
H254        H  0.79005272  0.63981270  0.30650852    -0.04700
O255        O  0.76857236  0.71495630  0.33553319    -0.73700
Mg256      Mg  0.75792686  0.66037784  0.20228535     1.58000
H257        H  0.72046912  0.73566960  0.34032885    -0.04700
C258        C  0.64946689  0.77728660  0.21452614     0.94500
O259        O  0.71323525  0.71766916  0.13831110    -0.80900
C260        C  0.72547981  0.68936908  0.12672552     0.94600
O261        O  0.76137429  0.84106058  0.32059739    -0.80900
Mg262      Mg  0.82573854  0.70678925  0.32111596     1.58200
O263        O  0.66881449  0.75978382  0.19428118    -0.79200
O264        O  0.89226714  0.66531352  0.26428570    -0.80900
C265        C  0.05792545  0.64453667  0.32870074     0.82100
N266        N  0.02760514  0.65726587  0.31617421    -0.76300
C267        C  0.99698397  0.64547132  0.32893747     0.84500
N268        N  0.99667025  0.62100586  0.35422643    -0.76200
C269        C  0.02694929  0.60816532  0.36686567     0.84600
N270        N  0.05755877  0.61995599  0.35393094    -0.77900
C271        C  0.35310833  0.30584369  0.03661566     0.82100
N272        N  0.37802182  0.33043558  0.04008574    -0.76300
C273        C  0.39213015  0.34567912  0.01167957     0.84500
N274        N  0.38099966  0.33619801  0.97950784    -0.76200
C275        C  0.35594818  0.31161636  0.97592513     0.84600
N276        N  0.34202759  0.29640261  0.00452005    -0.77900
O277        O  0.25447118  0.18291217  0.71899982    -0.86500
C278        C  0.35518406  0.21604797  0.72432343     0.89500
Mg279      Mg  0.21246450  0.21566842  0.70240312     1.58100
O280        O  0.31420164  0.20746807  0.80534307    -0.86200
O281        O  0.26937717  0.15182201  0.76423019    -0.73600
C282        C  0.23416972  0.36163438  0.79073336     0.94600
O283        O  0.29305483  0.23904515  0.67099266    -0.73400
O284        O  0.22259033  0.35093565  0.76176504    -0.80900
Mg285      Mg  0.29984135  0.18191361  0.68612400     1.58000
C286        C  0.32309618  0.28526175  0.87859054     0.94500
O287        O  0.31017004  0.12379191  0.69446683    -0.79200
H288        H  0.28891361  0.17854337  0.84017557    -0.04500
C289        C  0.31504177  0.30490979  0.76406311     0.89400
O290        O  0.19779194  0.22765721  0.75894892    -0.73700
O291        O  0.33102919  0.19577133  0.73011190    -0.86400
O292        O  0.34225285  0.26530826  0.86052503    -0.79200
C293        C  0.40480538  0.18647787  0.80804611     0.94600
C294        C  0.32804401  0.10441837  0.71433300     0.94500
Mg295      Mg  0.26277571  0.28436678  0.81949011     1.58000
O296        O  0.25221017  0.34267836  0.81091535    -0.79200
O297        O  0.26966506  0.22716747  0.83463048    -0.73400
O298        O  0.38518497  0.16742342  0.78941088    -0.79200
O299        O  0.26785924  0.16797725  0.63874633    -0.81000
O300        O  0.17716226  0.29885867  0.71526651    -0.79300
C301        C  0.29130607  0.20340813  0.82744522     0.88900
O302        O  0.23137994  0.27036736  0.77546307    -0.86400
O303        O  0.30807065  0.28319749  0.78663057    -0.86500
O304        O  0.29305263  0.31399439  0.74123760    -0.73600
Mg305      Mg  0.32708599  0.16271686  0.77503917     1.58000
O306        O  0.39540849  0.21608066  0.81918177    -0.81000
H307        H  0.22156829  0.15023568  0.74223711    -0.04700
O308        O  0.24834294  0.25848334  0.70013585    -0.86200
H309        H  0.27359482  0.28757015  0.66542288    -0.04500
H310        H  0.19457942  0.25063427  0.80623365    -0.04700
C311        C  0.27126930  0.26267414  0.67810263     0.88900
C312        C  0.24743754  0.16105666  0.74141447     0.89500
C313        C  0.20726074  0.25003494  0.78121434     0.89500
H314        H  0.34090248  0.31573965  0.76311755    -0.04700
O315        O  0.36465330  0.23849272  0.74651619    -0.73700
Mg316      Mg  0.23536722  0.30316121  0.73028497     1.58000
H317        H  0.36785498  0.21538001  0.69930130    -0.04700
C318        C  0.23961822  0.18047189  0.62726337     0.94500
O319        O  0.16735377  0.24999982  0.68573292    -0.80900
C320        C  0.15788608  0.27980744  0.69623575     0.94600
O321        O  0.33986713  0.11471868  0.74337107    -0.80900
Mg322      Mg  0.35009805  0.25036779  0.80308769     1.58200
O323        O  0.22040153  0.20046456  0.64518644    -0.79200
O324        O  0.29504768  0.29818203  0.86700536    -0.80900
C325        C  0.35598892  0.01135000  0.67315925     0.82100
N326        N  0.34014062  0.98084661  0.68076628    -0.76300
C327        C  0.35036211  0.95127199  0.66466615     0.84500
N328        N  0.37639529  0.95221951  0.64100701    -0.76200
C329        C  0.39236335  0.98268954  0.63325273     0.84600
N330        N  0.38207587  0.01223875  0.64946409    -0.77900
O331        O  0.21583030  0.75894230  0.71054517    -0.86500
C332        C  0.25008014  0.65901733  0.71621835     0.89500
Mg333      Mg  0.24779033  0.80096983  0.69342684     1.58100
O334        O  0.24252193  0.70026776  0.79716258    -0.86200
O335        O  0.18619866  0.74447698  0.75691978    -0.73600
C336        C  0.39440545  0.78236867  0.78010686     0.94600
O337        O  0.27192583  0.72037903  0.66245447    -0.73400
O338        O  0.38319933  0.79377586  0.75134540    -0.80900
Mg339      Mg  0.21496007  0.71328666  0.67823405     1.58000
C340        C  0.32160927  0.69249472  0.86864495     0.94500
O341        O  0.15698262  0.70288113  0.68755881    -0.79200
H342        H  0.21373988  0.72418863  0.83304808    -0.04500
C343        C  0.33948528  0.70038308  0.75475573     0.89400
O344        O  0.25993609  0.81619019  0.74987638    -0.73700
O345        O  0.22964979  0.68292461  0.72229168    -0.86400
O346        O  0.30140907  0.67309741  0.85111438    -0.79200
C347        C  0.22231445  0.60983611  0.80049248     0.94600
C348        C  0.13811374  0.68534191  0.70822597     0.94500
Mg349      Mg  0.31837410  0.75252574  0.81007827     1.58000
O350        O  0.37604777  0.76398053  0.80047482    -0.79200
O351        O  0.26177906  0.74474721  0.82671442    -0.73400
O352        O  0.20266446  0.62907372  0.78216161    -0.79200
O353        O  0.20059757  0.74422692  0.63048900    -0.81000
O354        O  0.32928641  0.83728858  0.70716796    -0.79300
C355        C  0.23837813  0.72264447  0.81974139     0.88900
O356        O  0.30298839  0.78305647  0.76621484    -0.86400
O357        O  0.31767948  0.70719446  0.77727995    -0.86500
O358        O  0.34798894  0.72223561  0.73158470    -0.73600
Mg359      Mg  0.19746234  0.68701046  0.76776629     1.58000
O360        O  0.25205709  0.61959540  0.81093108    -0.81000
H361        H  0.18374969  0.79193568  0.73438109    -0.04700
O362        O  0.29092445  0.76555825  0.69121400    -0.86200
H363        H  0.32020020  0.74050016  0.65652115    -0.04500
H364        H  0.28319389  0.81977936  0.79701363    -0.04700
C365        C  0.29532221  0.74254816  0.66930429     0.88900
C366        C  0.19460405  0.76611229  0.73351740     0.89500
C367        C  0.28250694  0.80699064  0.77204550     0.89500
H368        H  0.35085328  0.67477503  0.75413315    -0.04700
O369        O  0.27308487  0.65000418  0.73796853    -0.73700
Mg370      Mg  0.33548112  0.77955719  0.72085160     1.58000
H371        H  0.24909225  0.64623158  0.69125934    -0.04700
C372        C  0.21329540  0.77216036  0.61848828     0.94500
O373        O  0.28097780  0.84659456  0.67668408    -0.80900
C374        C  0.31008781  0.85659614  0.68851787     0.94600
O375        O  0.14909679  0.67400880  0.73716424    -0.80900
Mg376      Mg  0.28563184  0.66494372  0.79418751     1.58200
O377        O  0.23286789  0.79198470  0.63627314    -0.79200
O378        O  0.33379719  0.72079998  0.85696745    -0.80900
C379        C  0.04577705  0.65021173  0.67207166     0.82100
N380        N  0.04896416  0.62589217  0.64685907    -0.76300
C381        C  0.02044973  0.61020773  0.63340503     0.84500
N382        N  0.98844276  0.61902801  0.64551379    -0.76200
C383        C  0.98522188  0.64340748  0.67086549     0.84600
N384        N  0.01392478  0.65893131  0.68413205    -0.77900
C385        C  0.06219791  0.31516977  0.66651608     0.82100
N386        N  0.05794939  0.34028246  0.64197484    -0.76300
C387        C  0.02543163  0.35128885  0.63343660     0.84500
N388        N  0.99754135  0.33704299  0.64950421    -0.76200
C389        C  0.00167881  0.31191763  0.67370148     0.84600
N390        N  0.03400234  0.30101833  0.68226157    -0.77900
O391        O  0.80601392  0.25940004  0.80161491    -0.86500
C392        C  0.70868819  0.25793086  0.76044154     0.89500
Mg393      Mg  0.85073434  0.27383411  0.77191710     1.58100
O394        O  0.74585357  0.17560417  0.77184683    -0.86200
O395        O  0.78752640  0.21464384  0.83135577    -0.73600
C396        C  0.83573203  0.18689856  0.62317143     0.94600
O397        O  0.77391753  0.30833460  0.74244995    -0.73400
O398        O  0.84863612  0.21495139  0.63483170    -0.80900
Mg399      Mg  0.76215678  0.29388578  0.79903098     1.58000
C400        C  0.73916661  0.10243566  0.69355278     0.94500
O401        O  0.74729806  0.28585419  0.85628456    -0.79200
H402        H  0.76717248  0.13976190  0.80262232    -0.04500
C403        C  0.75353910  0.21588745  0.67436603     0.89400
O404        O  0.86353334  0.21657417  0.76125273    -0.73700
O405        O  0.73066123  0.25123160  0.78281647    -0.86400
O406        O  0.71970897  0.12136339  0.71236986    -0.79200
C407        C  0.65391196  0.17671798  0.78602780     0.94600
C408        C  0.72780616  0.26627906  0.87439305     0.94500
Mg409      Mg  0.80170567  0.15863354  0.69877717     1.58000
O410        O  0.81621846  0.16736654  0.64135230    -0.79200
O411        O  0.79004128  0.14389254  0.75537317    -0.73400
O412        O  0.67276436  0.19451119  0.80653754    -0.79200
O413        O  0.79463444  0.34007008  0.81503192    -0.81000
O414        O  0.89169145  0.25849295  0.69178772    -0.79300
C415        C  0.76722382  0.15240906  0.77758641     0.88900
O416        O  0.83370991  0.20111885  0.71529955    -0.86400
O417        O  0.75809678  0.19343997  0.69679822    -0.86500
O418        O  0.77685556  0.23794722  0.66688896    -0.73600
Mg419      Mg  0.73065127  0.20614575  0.81576585     1.58000
O420        O  0.66500169  0.16511103  0.75720547    -0.81000
H421        H  0.83556024  0.23547582  0.83686151    -0.04700
O422        O  0.81838889  0.27685869  0.72641640    -0.86200
H423        H  0.79706401  0.31242828  0.69534644    -0.04500
H424        H  0.86692854  0.16906269  0.73886079    -0.04700
C425        C  0.79693696  0.29990008  0.72044141     0.88900
C426        C  0.81067661  0.23692067  0.82400399     0.89500
C427        C  0.85538665  0.19458657  0.73804694     0.89500
H428        H  0.72865919  0.21744543  0.66151620    -0.04700
O429        O  0.70039667  0.23616268  0.73713059    -0.73700
Mg430      Mg  0.83376461  0.24640046  0.68249089     1.58000
H431        H  0.69708679  0.28343656  0.75999655    -0.04700
C432        C  0.82388495  0.35063416  0.80410998     0.94500
O433        O  0.89883787  0.28801916  0.74116982    -0.80900
C434        C  0.91013814  0.27673940  0.71230609     0.94600
O435        O  0.71567992  0.23778452  0.86304916    -0.80900
Mg436      Mg  0.71328626  0.17906367  0.72646892     1.58200
O437        O  0.84394511  0.33178700  0.78581024    -0.79200
O438        O  0.76849361  0.11265477  0.68239669    -0.80900
C439        C  0.69860685  0.00932855  0.66372318     0.82100
N440        N  0.67207114  0.00992088  0.64052828    -0.76300
C441        C  0.65678160  0.97990014  0.63006578     0.84500
N442        N  0.66832743  0.94918540  0.64301307    -0.76200
C443        C  0.69484606  0.94855035  0.66623476     0.84600
N444        N  0.70998774  0.97862166  0.67654751    -0.77900
O445        O  0.71407622  0.70324480  0.78544290    -0.86500
C446        C  0.75512086  0.80048362  0.78240691     0.89500
Mg447      Mg  0.74406449  0.65874196  0.79924374     1.58100
O448        O  0.74209906  0.76259776  0.70027254    -0.86200
O449        O  0.68343836  0.72130366  0.74115580    -0.73600
C450        C  0.88973690  0.67101602  0.70751688     0.94600
O451        O  0.77442784  0.73549863  0.83281873    -0.73400
O452        O  0.87891789  0.65906326  0.73630666    -0.80900
Mg453      Mg  0.71746449  0.74718140  0.81976786     1.58000
C454        C  0.82020447  0.76929385  0.62631300     0.94500
O455        O  0.66001838  0.76213537  0.81291951    -0.79200
H456        H  0.71045286  0.74179437  0.66480653    -0.04500
C457        C  0.84062233  0.75484487  0.73834692     0.89400
O458        O  0.75288232  0.64536722  0.74176964    -0.73700
O459        O  0.73266419  0.77841476  0.77637812    -0.86400
O460        O  0.80152334  0.78884141  0.64522638    -0.79200
C461        C  0.72789155  0.85403366  0.69991561     0.94600
C462        C  0.64190354  0.78172716  0.79344885     0.94500
Mg463      Mg  0.81417948  0.70646949  0.68186058     1.58000
O464        O  0.87145444  0.69092738  0.68857418    -0.79200
O465        O  0.75749378  0.71847719  0.66803645    -0.73400
O466        O  0.70765558  0.83579593  0.71864798    -0.79200
O467        O  0.70258922  0.71472309  0.86668616    -0.81000
O468        O  0.82311199  0.61754518  0.78167408    -0.79300
C469        C  0.73569330  0.74143873  0.67703328     0.88900
O470        O  0.79840644  0.67496297  0.72487666    -0.86400
O471        O  0.81737240  0.75018789  0.71676628    -0.86500
O472        O  0.84873705  0.73166933  0.76026626    -0.73600
Mg473      Mg  0.69896197  0.77802670  0.73176528     1.58000
O474        O  0.75672887  0.84276443  0.68865991    -0.81000
H475        H  0.67821193  0.67353943  0.76257961    -0.04700
O476        O  0.78969931  0.69106157  0.80085463    -0.86200
H477        H  0.82168965  0.71256734  0.83559196    -0.04500
H478        H  0.77389408  0.64156093  0.69363369    -0.04700
C479        C  0.79627349  0.71258716  0.82373214     0.88900
C480        C  0.69117794  0.69839541  0.76350668     0.89500
C481        C  0.77545047  0.65329423  0.71907730     0.89500
H482        H  0.85366372  0.77966077  0.73926030    -0.04700
O483        O  0.77794396  0.80850423  0.76006358    -0.73700
Mg484      Mg  0.83261314  0.67504602  0.76922326     1.58000
H485        H  0.75606508  0.81242138  0.80778549    -0.04700
C486        C  0.71413239  0.68556260  0.87682587     0.94500
O487        O  0.77483709  0.61086449  0.81296647    -0.80900
C488        C  0.80313734  0.59936556  0.80067932     0.94600
O489        O  0.65284729  0.79335866  0.76459495    -0.80900
Mg490      Mg  0.78766952  0.79503009  0.70286643     1.58200
O491        O  0.73209336  0.66583017  0.85737450    -0.79200
O492        O  0.83033094  0.73951013  0.63606113    -0.80900
C493        C  0.35618812  0.64673295  0.02071603     0.82100
N494        N  0.34311621  0.66180393  0.99173203    -0.76300
C495        C  0.35665197  0.65405428  0.96020668     0.84500
N496        N  0.38336413  0.63137811  0.95761909    -0.76200
C497        C  0.39639126  0.61591020  0.98640791     0.84600
N498        N  0.38273296  0.62365419  0.01809031    -0.77900
C499        C  0.69212320  0.31116092  0.02691364     0.82100
N500        N  0.66755937  0.33621141  0.02375000    -0.76300
C501        C  0.65638364  0.34610545  0.99174439     0.84500
N502        N  0.66991312  0.33075485  0.96310334    -0.76200
C503        C  0.69445409  0.30579857  0.96622055     0.84600
N504        N  0.70557061  0.29596821  0.99812754    -0.77900
C505        C  0.69277738  0.65162639  0.03384584     0.82100
N506        N  0.66984211  0.62505198  0.03627614    -0.76300
C507        C  0.65609446  0.61060625  0.00723739     0.84500
N508        N  0.66551055  0.62298841  0.97552802    -0.76200
C509        C  0.68858268  0.64955995  0.97304063     0.84600
N510        N  0.70214909  0.66391626  0.00222394    -0.77900
C511        C  0.54839754  0.14341941  0.16990561     0.82100
N512        N  0.54578796  0.11829360  0.14522643    -0.76300
C513        C  0.51409195  0.10562261  0.13603798     0.84500
N514        N  0.48523375  0.11829000  0.15162881    -0.76200
C515        C  0.48771777  0.14329169  0.17622764     0.84600
N516        N  0.51930629  0.15592524  0.18538523    -0.77900
C517        C  0.19148689  0.44312038  0.16770178     0.82100
N518        N  0.20371235  0.47401417  0.17939403    -0.76300
C519        C  0.19243175  0.50401809  0.16483688     0.84500
N520        N  0.16879913  0.50307235  0.13867483    -0.76200
C521        C  0.15654694  0.47213489  0.12684571     0.84600
N522        N  0.16810995  0.44224770  0.14138998    -0.77900
C523        C  0.19872169  0.14637050  0.53621318     0.82100
N524        N  0.17428024  0.12132752  0.53994689    -0.76300
C525        C  0.15773182  0.10814665  0.51177110     0.84500
N526        N  0.16581588  0.12030026  0.47960244    -0.76200
C527        C  0.19028832  0.14543248  0.47580378     0.84600
N528        N  0.20673010  0.15845068  0.50413387    -0.77900
N529        N  0.02378081  0.92423782  0.51941438    -0.34800
N530        N  0.97069233  0.97818768  0.52113158    -0.55300
N531        N  0.02449869  0.03089926  0.51010859    -0.34800
N532        N  0.07719969  0.97651753  0.50443656    -0.55300
C533        C  0.99502702  0.90402568  0.52030292     0.28800
C534        C  0.05137297  0.90336074  0.51373336     0.28800
C535        C  0.99575476  0.05090816  0.50784805     0.28800
C536        C  0.05170468  0.04987066  0.49850139     0.28800
C537        C  0.95047461  0.95064452  0.52919611     0.37400
C538        C  0.95107703  0.00689322  0.52557280     0.40200
C539        C  0.09800117  0.94863147  0.50870517     0.37400
C540        C  0.09815730  0.00461401  0.50267869     0.37400
C541        C  0.00470068  0.86966116  0.51564851    -0.20100
C542        C  0.04011198  0.86926230  0.51150014    -0.20100
C543        C  0.00500495  0.08335146  0.49526807    -0.20100
C544        C  0.04017670  0.08264560  0.48926782    -0.20100
C545        C  0.91757061  0.96192888  0.53828597    -0.21100
C546        C  0.91799003  0.99748416  0.53613561    -0.21100
C547        C  0.13244029  0.95904469  0.50916483    -0.21100
C548        C  0.13254873  0.99442339  0.50515388    -0.21100
C549        C  0.96050536  0.91537383  0.52660552    -0.16500
C550        C  0.08658639  0.91379732  0.51159722    -0.16500
C551        C  0.08689409  0.03921018  0.49763872    -0.16500
C552        C  0.96167680  0.04130047  0.51808731    -0.16500
H553        H  0.98816045  0.84698774  0.51567248     0.16400
H554        H  0.05578333  0.84634990  0.50740997     0.16400
H555        H  0.98828305  0.10544307  0.49097201     0.16400
H556        H  0.05554447  0.10403956  0.47953790     0.16400
H557        H  0.89542432  0.94620978  0.54542970     0.14700
H558        H  0.89618656  0.01440972  0.54117571     0.14700
H559        H  0.15518324  0.94288399  0.51208851     0.14700
H560        H  0.15539382  0.01072964  0.50428737     0.14700
H561        H  0.02484173  0.95053283  0.52385483     0.28000
H562        H  0.02573321  0.00635583  0.52061519     0.28000
N563        N  0.52780008  0.97563716  0.05248223    -0.34800
N564        N  0.52468194  0.03105266  0.00116085    -0.55300
N565        N  0.52757592  0.97948862  0.94533074    -0.34800
N566        N  0.52487678  0.92407329  0.99665253    -0.55300
C567        C  0.52464038  0.00352883  0.07356419     0.28800
C568        C  0.51917482  0.94714717  0.07111486     0.28800
C569        C  0.51963748  0.00802854  0.92651233     0.28800
C570        C  0.52494801  0.95163580  0.92412220     0.28800
C571        C  0.53175867  0.05052924  0.02950043     0.37400
C572        C  0.52567914  0.05263710  0.97353614     0.37400
C573        C  0.52599382  0.90252915  0.02429091     0.37400
C574        C  0.53197915  0.90463218  0.96831716     0.37400
C575        C  0.51472207  0.99257085  0.10637393    -0.20100
C576        C  0.51086525  0.95710820  0.10472268    -0.20100
C577        C  0.51230837  0.99815387  0.89264812    -0.20100
C578        C  0.51608758  0.96270929  0.89103648    -0.20100
C579        C  0.53687106  0.08478810  0.01984204    -0.21100
C580        C  0.53271646  0.08616977  0.98446884    -0.21100
C581        C  0.53322728  0.86904353  0.01340747    -0.21100
C582        C  0.53730210  0.87041700  0.97801445    -0.21100
C583        C  0.53135252  0.03844116  0.06419334    -0.16500
C584        C  0.51984849  0.91231246  0.05915742    -0.16500
C585        C  0.53126643  0.91666957  0.93360500    -0.16500
C586        C  0.52004108  0.04283754  0.93856681    -0.16500
H587        H  0.51034043  0.00841047  0.12913251     0.16400
H588        H  0.50314017  0.94055165  0.12604091     0.16400
H589        H  0.50530339  0.01474502  0.87112227     0.16400
H590        H  0.51243900  0.94700412  0.86805417     0.16400
H591        H  0.54244478  0.10664630  0.03657738     0.14700
H592        H  0.53504774  0.10918588  0.96856836     0.14700
H593        H  0.53561122  0.84605859  0.02933855     0.14700
H594        H  0.54291647  0.84857304  0.96129118     0.14700
H595        H  0.53688312  0.97604263  0.02726540     0.28000
H596        H  0.53578169  0.97904597  0.97082166     0.28000
N597        N  0.02333732  0.49076980  0.05106538    -0.34800
N598        N  0.96904231  0.48285099  0.99864982    -0.55300
N599        N  0.02201237  0.47998296  0.94450105    -0.34800
N600        N  0.07587853  0.49170973  0.99668613    -0.55300
C601        C  0.99505240  0.49833670  0.07047785     0.28800
C602        C  0.05174082  0.49929340  0.06989362     0.28800
C603        C  0.99294802  0.47953677  0.92484422     0.28800
C604        C  0.04884419  0.48873685  0.92357446     0.28800
C605        C  0.94900835  0.48215906  0.02745296     0.37400
C606        C  0.94873439  0.47270416  0.97188391     0.37400
C607        C  0.09723351  0.49044930  0.02449211     0.37400
C608        C  0.09614369  0.48932749  0.96816431     0.37400
C609        C  0.00572335  0.51127725  0.10236717    -0.20100
C610        C  0.04141034  0.51168533  0.10206883    -0.20100
C611        C  0.00149923  0.48724745  0.89073738    -0.20100
C612        C  0.03668096  0.49329180  0.88998103    -0.20100
C613        C  0.91553137  0.47218402  0.01875137    -0.21100
C614        C  0.91546023  0.46586322  0.98367516    -0.21100
C615        C  0.13136481  0.48752519  0.01353269    -0.21100
C616        C  0.13069137  0.48707443  0.97789736    -0.21100
C617        C  0.95997875  0.49218953  0.06112568    -0.16500
C618        C  0.08672025  0.49503969  0.05941632    -0.16500
C619        C  0.08418294  0.49128653  0.93347644    -0.16500
C620        C  0.95901180  0.47180377  0.93661400    -0.16500
H621        H  0.98952996  0.51919639  0.12389540     0.16400
H622        H  0.05783147  0.52017401  0.12321990     0.16400
H623        H  0.98416982  0.48869535  0.86868319     0.16400
H624        H  0.05162575  0.49995837  0.86715496     0.16400
H625        H  0.89331497  0.46984370  0.03573380     0.14700
H626        H  0.89322095  0.45786542  0.96849237     0.14700
H627        H  0.15447697  0.48677968  0.02945036     0.14700
H628        H  0.15315750  0.48556245  0.96113647     0.14700
H629        H  0.02341759  0.47887230  0.02703501     0.28000
H630        H  0.02349589  0.47324827  0.97040816     0.28000
N631        N  0.57765221  0.47898459  0.00082737    -0.34800
N632        N  0.52339169  0.53184927  0.99425638    -0.55300
N633        N  0.47085546  0.47798617  0.00112570    -0.34800
N634        N  0.52495477  0.42494193  0.00186231    -0.55300
C635        C  0.59723575  0.50644111  0.99105315     0.28800
C636        C  0.59803631  0.45046756  0.99981302     0.28800
C637        C  0.45065692  0.50615384  0.99594489     0.28800
C638        C  0.45169850  0.44964324  0.99310588     0.28800
C639        C  0.55165912  0.55263024  0.99462715     0.37400
C640        C  0.49564668  0.55244002  0.00029517     0.37400
C641        C  0.55271992  0.40507654  0.00967167     0.37400
C642        C  0.49677160  0.40417423  0.00363728     0.37400
C643        C  0.63073109  0.49524844  0.98416818    -0.20100
C644        C  0.63131157  0.46003181  0.98998001    -0.20100
C645        C  0.41795591  0.49565237  0.98527846    -0.20100
C646        C  0.41869488  0.46003856  0.98316254    -0.20100
C647        C  0.54172793  0.58674315  0.00004483    -0.21100
C648        C  0.50634755  0.58656139  0.00412093    -0.21100
C649        C  0.54212932  0.37131580  0.01617836    -0.21100
C650        C  0.50673627  0.37066754  0.01198485    -0.21100
C651        C  0.58632888  0.54152976  0.98984960    -0.16500
C652        C  0.58767997  0.41622214  0.00830231    -0.16500
C653        C  0.46243237  0.41462457  0.99607229    -0.16500
C654        C  0.46068798  0.54107736  0.00099348    -0.16500
H655        H  0.65265581  0.51088038  0.97618922     0.16400
H656        H  0.65371384  0.44340638  0.98706653     0.16400
H657        H  0.39599373  0.51199501  0.97912297     0.16400
H658        H  0.39719112  0.44366634  0.97550578     0.16400
H659        H  0.55829101  0.60937281  0.00153666     0.14700
H660        H  0.49040847  0.60909373  0.00908213     0.14700
H661        H  0.55828398  0.34923874  0.02240174     0.14700
H662        H  0.49029187  0.34807524  0.01471623     0.14700
H663        H  0.55226505  0.47980675  0.00929349     0.28000
H664        H  0.49572432  0.47827151  0.01115440     0.28000
N665        N  0.00474445  0.53240227  0.49960493    -0.34800
N666        N  0.00409436  0.47961947  0.44565120    -0.55300
N667        N  0.02305750  0.42688000  0.49702777    -0.34800
N668        N  0.01854317  0.47925010  0.55181353    -0.55300
C669        C  0.99533175  0.55183537  0.47197328     0.28800
C670        C  0.99736649  0.55071584  0.52863739     0.28800
C671        C  0.01344436  0.40620978  0.47022937     0.28800
C672        C  0.02593348  0.40663413  0.52557956     0.28800
C673        C  0.00411626  0.50799856  0.42505126     0.37400
C674        C  0.00688172  0.45183801  0.42446399     0.37400
C675        C  0.01782785  0.50746632  0.57271588     0.37400
C676        C  0.03161097  0.45283355  0.57083390     0.37400
C677        C  0.98234216  0.58331361  0.48348495    -0.20100
C678        C  0.98333068  0.58250195  0.51920683    -0.20100
C679        C  0.01084008  0.37225710  0.48188749    -0.20100
C680        C  0.01907438  0.37247968  0.51663204    -0.20100
C681        C  0.00648720  0.49810696  0.39051491    -0.21100
C682        C  0.00799230  0.46255488  0.39014072    -0.21100
C683        C  0.02994911  0.49868390  0.60544171    -0.21100
C684        C  0.03900488  0.46426288  0.60413400    -0.21100
C685        C  0.99969804  0.54255025  0.43670210    -0.16500
C686        C  0.00494369  0.54061376  0.56322796    -0.16500
C687        C  0.03450188  0.41796010  0.55953798    -0.16500
C688        C  0.00766180  0.41685202  0.43539630    -0.16500
H689        H  0.97314526  0.60470310  0.46782523     0.16400
H690        H  0.97531503  0.60333906  0.53622900     0.16400
H691        H  0.00361901  0.34955984  0.46702097     0.16400
H692        H  0.01922586  0.35007087  0.53353117     0.16400
H693        H  0.00645752  0.51466273  0.36784777     0.14700
H694        H  0.00998243  0.44645618  0.36720660     0.14700
H695        H  0.03202270  0.51521083  0.62803828     0.14700
H696        H  0.04916942  0.44920322  0.62552963     0.14700
H697        H  0.01730442  0.50873408  0.49845211     0.28000
H698        H  0.02852470  0.45316654  0.49582769     0.28000
N699        N  0.57641075  0.95767582  0.50168278    -0.34800
N700        N  0.52190492  0.95713123  0.55429979    -0.55300
N701        N  0.46905207  0.96016451  0.49933303    -0.34800
N702        N  0.52365338  0.95657772  0.44685341    -0.55300
C703        C  0.59558705  0.95102676  0.53037961     0.28800
C704        C  0.59655398  0.95101289  0.47368260     0.28800
C705        C  0.44874025  0.95435645  0.52742758     0.28800
C706        C  0.44958115  0.95395838  0.47066571     0.28800
C707        C  0.54973340  0.95911024  0.57563505     0.37400
C708        C  0.49341879  0.96061192  0.57448281     0.37400
C709        C  0.55229386  0.95935584  0.42673094     0.37400
C710        C  0.49595060  0.95945760  0.42546871     0.37400
C711        C  0.62854540  0.94058450  0.52046966    -0.20100
C712        C  0.62917212  0.94060044  0.48478865    -0.20100
C713        C  0.41570419  0.94515722  0.51640496    -0.20100
C714        C  0.41628162  0.94477904  0.48073432    -0.20100
C715        C  0.53887129  0.96337240  0.60964154    -0.21100
C716        C  0.50328089  0.96422356  0.60894679    -0.21100
C717        C  0.54265006  0.96364283  0.39231254    -0.21100
C718        C  0.50707199  0.96379661  0.39153861    -0.21100
C719        C  0.58473591  0.95506946  0.56529536    -0.16500
C720        C  0.58694806  0.95532427  0.43841113    -0.16500
C721        C  0.46074607  0.95645925  0.43561497    -0.16500
C722        C  0.45863246  0.95800501  0.56274501    -0.16500
H723        H  0.65000591  0.93366417  0.53719809     0.16400
H724        H  0.65126925  0.93375782  0.46888881     0.16400
H725        H  0.39340768  0.93908118  0.53235063     0.16400
H726        H  0.39459726  0.93816705  0.46415905     0.16400
H727        H  0.55487600  0.96509239  0.63266268     0.14700
H728        H  0.48666692  0.96657769  0.63144693     0.14700
H729        H  0.55938518  0.96575904  0.36987750     0.14700
H730        H  0.49122489  0.96638995  0.36849692     0.14700
H731        H  0.55155034  0.96771701  0.50119047     0.28000
H732        H  0.49437934  0.96902945  0.49976900     0.28000
C733        C  0.13131772  0.08080727  0.51688833    -0.14600
C734        C  0.11358210  0.06619376  0.49069120    -0.29800
H735        H  0.12619178  0.07226102  0.54328271     0.14400
H736        H  0.11761077  0.07459825  0.46409876     0.15000
C737        C  0.13077149  0.47033240  0.09850256    -0.14600
C738        C  0.11399010  0.49835274  0.08648941    -0.29800
H739        H  0.12455872  0.44499295  0.08778202     0.14400
H740        H  0.11860943  0.52371577  0.09785912     0.15000
C741        C  0.51005919  0.07865163  0.10905943    -0.14600
C742        C  0.53693068  0.06428508  0.09229458    -0.29800
H743        H  0.48390278  0.07036423  0.10249735     0.14400
H744        H  0.56329047  0.07263109  0.09770982     0.15000
C745        C  0.63068350  0.58214817  0.01095758    -0.14600
C746        C  0.61312981  0.56862062  0.98408844    -0.29800
H747        H  0.62536334  0.57257262  0.03695589     0.14400
H748        H  0.61720343  0.57815046  0.95788827     0.15000
C749        C  0.62950691  0.37297890  0.98735295    -0.14600
C750        C  0.61511540  0.38990471  0.01413082    -0.29800
H751        H  0.62116938  0.37917309  0.96112268     0.14400
H752        H  0.62258831  0.38403586  0.04065601     0.15000
C753        C  0.42543908  0.59128439  0.98256246    -0.14600
C754        C  0.43258018  0.56693469  0.00634121    -0.29800
H755        H  0.44049976  0.59210715  0.95872732     0.14400
H756        H  0.41595944  0.56396985  0.02891517     0.15000
C757        C  0.70588652  0.67381518  0.91123959    -0.11400
C758        C  0.69823332  0.66287546  0.93956767    -0.13000
C759        C  0.62830540  0.98119812  0.60428916    -0.14600
C760        C  0.61172140  0.95273239  0.59281698    -0.29800
H761        H  0.62100001  0.00636368  0.59393123     0.14400
H762        H  0.61858905  0.92722649  0.60254753     0.15000
C763        C  0.71701590  0.88819898  0.68990045    -0.11400
C764        C  0.70708588  0.91601999  0.67962540    -0.13000
C765        C  0.71801793  0.27778304  0.90841031    -0.11400
C766        C  0.70815643  0.28966943  0.93560556    -0.13000
C767        C  0.71449770  0.04124294  0.67477818    -0.11400
C768        C  0.72674615  0.06866233  0.68371274    -0.13000
C769        C  0.01926451  0.37887736  0.60749951    -0.14600
C770        C  0.04357008  0.39104975  0.58574076    -0.29800
H771        H  0.99306402  0.38910487  0.60551403     0.14400
H772        H  0.06963965  0.38043215  0.58589756     0.15000
C773        C  0.97158837  0.29701427  0.68992138    -0.11400
C774        C  0.94443073  0.28647206  0.70140239    -0.13000
C775        C  0.02517661  0.58352732  0.60622042    -0.14600
C776        C  0.99872631  0.56661982  0.59112062    -0.29800
H777        H  0.05153320  0.57743822  0.59826747     0.14400
H778        H  0.97210291  0.57302688  0.59770482     0.15000
C779        C  0.95155778  0.65271800  0.68400525    -0.11400
C780        C  0.92355327  0.66110119  0.69526482    -0.13000
C781        C  0.34268340  0.66952938  0.92944594    -0.11400
C782        C  0.33216824  0.68104229  0.90237932    -0.13000
C783        C  0.07634347  0.66578547  0.68651468    -0.11400
C784        C  0.10369084  0.67633946  0.69739791    -0.13000
C785        C  0.42082568  0.98402057  0.60757518    -0.14600
C786        C  0.43062853  0.95606775  0.58919885    -0.29800
H787        H  0.43397738  0.00860969  0.60339444     0.14400
H788        H  0.41696105  0.93160057  0.59214226     0.15000
C789        C  0.33428223  0.91877655  0.67313270    -0.11400
C790        C  0.32230506  0.89074677  0.68014129    -0.13000
C791        C  0.22789606  0.17038233  0.59336470    -0.11400
C792        C  0.21565059  0.16018039  0.56641790    -0.13000
C793        C  0.12442804  0.29282672  0.68560195    -0.11400
C794        C  0.09640847  0.30354888  0.67633202    -0.13000
C795        C  0.33650864  0.07017937  0.70238814    -0.11400
C796        C  0.34500042  0.04279051  0.68987155    -0.13000
C797        C  0.43602133  0.38725820  0.98996964    -0.14600
C798        C  0.41920620  0.37236822  0.01653313    -0.29800
H799        H  0.42982216  0.38039642  0.96334209     0.14400
H800        H  0.42573933  0.38000497  0.04290395     0.15000
C801        C  0.34398819  0.30189008  0.94189128    -0.11400
C802        C  0.33408418  0.29403134  0.91319411    -0.13000
C803        C  0.02706566  0.58100842  0.39385453    -0.14600
C804        C  0.99816027  0.57058171  0.41035151    -0.29800
H805        H  0.05171462  0.56900300  0.40039434     0.14400
H806        H  0.97340063  0.58300010  0.40529103     0.15000
C807        C  0.71616727  0.67838931  0.09238421    -0.11400
C808        C  0.70643403  0.66701149  0.06490465    -0.13000
C809        C  0.93697578  0.66774907  0.30480415    -0.11400
C810        C  0.96482846  0.65837414  0.31542509    -0.13000
C811        C  0.61490166  0.95268139  0.41192973    -0.14600
C812        C  0.62585079  0.98053830  0.39404013    -0.29800
H813        H  0.62729806  0.92766660  0.40828267     0.14400
H814        H  0.61391886  0.00558835  0.39894439     0.15000
C815        C  0.70844686  0.91328503  0.32527745    -0.11400
C816        C  0.72002175  0.88520364  0.31778260    -0.13000
C817        C  0.58187740  0.15718517  0.17928961    -0.11400
C818        C  0.61002130  0.16876137  0.18692755    -0.13000
C819        C  0.70348943  0.30024453  0.06068783    -0.11400
C820        C  0.71306565  0.29102915  0.08902744    -0.13000
C821        C  0.71223210  0.06554789  0.29996243    -0.11400
C822        C  0.70280073  0.03812735  0.31184035    -0.13000
C823        C  0.21549346  0.56460580  0.18749609    -0.11400
C824        C  0.20540846  0.53678178  0.17718048    -0.13000
C825        C  0.34236132  0.65599350  0.05412335    -0.11400
C826        C  0.33104283  0.66452659  0.08206911    -0.13000
C827        C  0.09042223  0.65727953  0.31553501    -0.11400
C828        C  0.11815220  0.66790006  0.30556529    -0.13000
C829        C  0.40951107  0.97667085  0.40236103    -0.14600
C830        C  0.43438138  0.95281645  0.40742707    -0.29800
H831        H  0.40858565  0.99925510  0.41922179     0.14400
H832        H  0.43726993  0.93156237  0.38913831     0.15000
C833        C  0.34520923  0.91114884  0.31372611    -0.11400
C834        C  0.33715672  0.88386356  0.30050883    -0.13000
C835        C  0.19884169  0.15829269  0.44183634    -0.11400
C836        C  0.20615060  0.16892147  0.41328687    -0.13000
C837        C  0.42874103  0.16546358  0.20288517    -0.11400
C838        C  0.45661028  0.15646127  0.19189992    -0.13000
C839        C  0.20363496  0.41119922  0.18256528    -0.11400
C840        C  0.21347725  0.38337511  0.19292196    -0.13000
C841        C  0.32898365  0.27831456  0.09448998    -0.11400
C842        C  0.33882273  0.28995943  0.06715048    -0.13000
C843        C  0.32011574  0.06325186  0.31370336    -0.11400
C844        C  0.33127590  0.03554825  0.32298080    -0.13000
C845        C  0.00122177  0.38992955  0.40843910    -0.14600
C846        C  0.02572912  0.36686360  0.39976544    -0.29800
H847        H  0.97730646  0.39129178  0.39357629     0.14400
H848        H  0.05061981  0.36767697  0.41300310     0.15000
C849        C  0.92494292  0.28874357  0.31084141    -0.11400
C850        C  0.95296569  0.29901226  0.32028814    -0.13000
C851        C  0.10561608  0.28075671  0.30426612    -0.11400
C852        C  0.07798621  0.29008598  0.31539805    -0.13000
C853        C  0.42848393  0.79209822  0.79106740    -0.11400
C854        C  0.45564621  0.80223288  0.80262800    -0.13000
C855        C  0.58019112  0.80217180  0.81464256    -0.11400
C856        C  0.60811772  0.79199834  0.80503099    -0.13000
C857        C  0.50911843  0.87796856  0.88777664    -0.14600
C858        C  0.53621918  0.89071619  0.90554286    -0.29800
H859        H  0.48319777  0.88727513  0.89379175     0.14400
H860        H  0.56225472  0.88109185  0.90081295     0.15000
C861        C  0.22477607  0.39579149  0.80211363    -0.11400
C862        C  0.21358097  0.42284421  0.81308206    -0.13000
C863        C  0.21018410  0.57595336  0.81026538    -0.11400
C864        C  0.20052837  0.54755501  0.81926424    -0.13000
C865        C  0.12892852  0.47175169  0.89228901    -0.14600
C866        C  0.11022808  0.49777010  0.90580223    -0.29800
H867        H  0.12447111  0.44549472  0.90153702     0.14400
H868        H  0.11360334  0.52416198  0.89657923     0.15000
C869        C  0.59154467  0.15927674  0.80828190    -0.11400
C870        C  0.61925488  0.16823376  0.79679294    -0.13000
C871        C  0.43866883  0.17365786  0.81726095    -0.11400
C872        C  0.46680241  0.16217739  0.82498758    -0.13000
C873        C  0.53857254  0.07917273  0.88938949    -0.14600
C874        C  0.51427329  0.07109361  0.91295497    -0.29800
H875        H  0.56281445  0.06479851  0.88924147     0.14400
H876        H  0.49085710  0.08657778  0.91514305     0.15000
C877        C  0.82604998  0.53802522  0.81982279    -0.11400
C878        C  0.81408606  0.56513003  0.80998974    -0.13000
C879        C  0.84339372  0.41372829  0.82248380    -0.11400
C880        C  0.83490696  0.38500995  0.81336621    -0.13000
C881        C  0.91169465  0.48989257  0.89805416    -0.14600
C882        C  0.93210808  0.46444969  0.91005282    -0.29800
H883        H  0.91511218  0.51602608  0.90809832     0.14400
H884        H  0.92995376  0.43824647  0.89995304     0.15000
C885        C  0.82534883  0.39119363  0.19650409    -0.11400
C886        C  0.83640640  0.41804754  0.18488074    -0.13000
C887        C  0.84277331  0.54290722  0.17714532    -0.11400
C888        C  0.83228656  0.57077694  0.18668011    -0.13000
C889        C  0.91701276  0.47060071  0.10337594    -0.14600
C890        C  0.93310000  0.49756772  0.08830529    -0.29800
H891        H  0.92364423  0.44444708  0.09521708     0.14400
H892        H  0.92783377  0.52389398  0.09681585     0.15000
C893        C  0.58809472  0.79560809  0.19089422    -0.11400
C894        C  0.61531276  0.78613056  0.20291500    -0.13000
C895        C  0.43591302  0.78213492  0.18076591    -0.11400
C896        C  0.46391867  0.79377936  0.17281393    -0.13000
C897        C  0.53753849  0.87540107  0.10817349    -0.14600
C898        C  0.51341208  0.88410676  0.08467970    -0.29800
H899        H  0.56219745  0.88910788  0.10817830     0.14400
H900        H  0.48942677  0.86943590  0.08273184     0.15000
C901        C  0.84670650  0.78971016  0.44164088    -0.11400
C902        C  0.83742239  0.77822013  0.41408755    -0.13000
C903        C  0.84278197  0.79401792  0.56660176    -0.11400
C904        C  0.83161964  0.78226964  0.59335569    -0.13000
C905        C  0.92192408  0.87054138  0.50234672    -0.14600
C906        C  0.93281797  0.88858224  0.53013926    -0.29800
H907        H  0.93367099  0.87585756  0.47725003     0.14400
H908        H  0.92054595  0.88497693  0.55525302     0.15000
C909        C  0.85114964  0.16520923  0.55993245    -0.11400
C910        C  0.84399655  0.17617737  0.58839899    -0.13000
C911        C  0.83692394  0.15836912  0.43492124    -0.11400
C912        C  0.82458410  0.16743409  0.40755460    -0.13000
C913        C  0.93513639  0.06909094  0.52096880    -0.14600
C914        C  0.91940574  0.08215720  0.49273248    -0.29800
H915        H  0.92794603  0.07786351  0.54676891     0.14400
H916        H  0.92638011  0.07224578  0.46726138     0.15000
C917        C  0.20469677  0.78223428  0.58372596    -0.11400
C918        C  0.19710383  0.79218075  0.55507810    -0.13000
C919        C  0.21056150  0.79442019  0.43023499    -0.11400
C920        C  0.22285781  0.78422819  0.40332189    -0.13000
C921        C  0.13169688  0.87573233  0.48644773    -0.14600
C922        C  0.11307473  0.88601992  0.51405848    -0.29800
H923        H  0.12792013  0.88845205  0.46157093     0.14400
H924        H  0.11525220  0.87236816  0.53861269     0.15000
loop_ 
_geom_bond_atom_site_label_1 
_geom_bond_atom_site_label_2 
_geom_bond_distance 
_geom_bond_site_symmetry_2 
_ccdc_geom_bond_type 
C1            N2   1.355       .  A
C1            N6   1.356       .  A
C1          C918   1.434       .  S
N2            C3   1.359       .  A
C3            N4   1.359       .  A
C3          C921   1.478       .  S
N4            C5   1.359       .  A
C5            N6   1.357       .  A
C5          C919   1.436       .  S
C7            N8   1.358       .  A
C7           N12   1.358       .  A
C7          C909   1.438       .  S
N8            C9   1.358       .  A
C9           N10   1.359       .  A
C9          C911   1.440       .  S
N10          C11   1.359       .  A
C11          N12   1.360       .  A
C11         C914   1.479       .  S
C13          N14   1.355       .  A
C13          N18   1.361       .  A
C13         C903   1.435       .  S
N14          C15   1.354       .  A
C15          N16   1.356       .  A
C15         C901   1.433       .  S
N16          C17   1.358       .  A
C17          N18   1.362       .  A
C17         C905   1.479       .  S
C19          N20   1.355       .  A
C19          N24   1.356       .  A
C19         C893   1.433       .  S
N20          C21   1.356       .  A
C21          N22   1.363       .  A
C21         C897   1.477       .  S
N22          C23   1.361       .  A
C23          N24   1.357       .  A
C23         C896   1.440       .  S
C25          N26   1.356       .  A
C25          N30   1.359       .  A
C25         C887   1.436       .  S
N26          C27   1.355       .  A
C27          N28   1.357       .  A
C27         C886   1.436       .  S
N28          C29   1.358       .  A
C29          N30   1.362       .  A
C29         C889   1.478       .  S
C31          N32   1.359       .  A
C31          N36   1.358       .  A
C31         C879   1.437       .  S
N32          C33   1.361       .  A
C33          N34   1.356       .  A
C33         C881   1.476       .  S
N34          C35   1.355       .  A
C35          N36   1.356       .  A
C35         C877   1.433       .  S
C37          N38   1.355       .  A
C37          N42   1.358       .  A
C37         C869   1.437       .  S
N38          C39   1.356       .  A
C39          N40   1.362       .  A
C39         C873   1.477       .  S
N40          C41   1.361       .  A
C41          N42   1.359       .  A
C41         C872   1.441       .  S
C43          N44   1.356       .  A
C43          N48   1.356       .  A
C43         C862   1.436       .  S
N44          C45   1.357       .  A
C45          N46   1.362       .  A
C45         C865   1.478       .  S
N46          C47   1.360       .  A
C47          N48   1.358       .  A
C47         C864   1.438       .  S
C49          N50   1.356       .  A
C49          N54   1.354       .  A
C49         C854   1.430       .  S
N50          C51   1.357       .  A
C51          N52   1.361       .  A
C51         C857   1.477       .  S
N52          C53   1.359       .  A
C53          N54   1.355       .  A
C53         C855   1.433       .  S
C55          N56   1.354       .  A
C55          N60   1.356       .  A
C55         C852   1.432       .  S
N56          C57   1.355       .  A
C57          N58   1.362   1_455  A
C57         C846   1.475       .  S
N58          C59   1.360       .  A
C59          N60   1.357   1_655  A
C59         C850   1.436       .  S
O61         Mg63   2.143       .  S
O61         Mg69   2.154       .  S
O61          C96   1.237       .  S
C62          O75   1.237       .  S
C62          O99   1.270       .  A
C62         H101   1.081       .  S
Mg63         O92   2.154       .  S
Mg63        O107   2.308       .  S
Mg63        O103   2.267       .  S
Mg63         O74   2.297       .  S
O64        Mg106   2.151       .  S
O64         Mg89   2.136       .  S
O64          C85   1.236       .  S
O65          C96   1.270       .  A
O65         Mg89   2.297       .  S
C66         C840   1.436       .  S
C66          O68   1.271       .  A
C66          O80   1.274       .  A
O67          C95   1.271       .  A
O67         Mg69   2.299       .  S
O68        Mg100   2.263       .  S
Mg69         O75   2.141       .  S
Mg69         O83   2.264       .  S
Mg69         O71   2.310       .  S
C70         C851   1.432       .  S
C70         O108   1.271       .  A
C70          O76   1.273       .  A
O71          C78   1.274       .  A
H72          C85   1.081       .  S
C73          O87   1.237       .  S
C73          O88   1.270       .  A
C73          H98   1.081       .  S
O74          C97   1.270       .  A
O75         Mg89   2.155       .  S
O76        Mg106   2.301       .  S
C77         C836   1.438       .  S
C77          O90   1.272       .  A
C77          O82   1.274       .  A
C78         C843   1.436       .  S
C78         O105   1.270       .  A
Mg79         O86   2.139       .  S
Mg79         O87   2.157       .  S
Mg79         O80   2.311       .  S
Mg79         O81   2.296       .  S
Mg79        O108   2.259       .  S
O81          C85   1.270       .  A
O82         Mg89   2.305       .  S
O83         C102   1.271       .  A
O84         C104   1.274       .  A
O84        Mg100   2.308       .  S
O86        Mg100   2.153       .  S
O86          C97   1.236       .  S
O87        Mg106   2.144       .  S
O88        Mg100   2.297       .  S
Mg89        O105   2.262       .  S
O90        Mg106   2.273       .  S
H91          C96   1.081       .  S
O92        Mg100   2.141       .  S
O92          C95   1.237       .  S
H93          C95   1.081       .  S
H94          C97   1.081       .  S
O99        Mg106   2.297       .  S
C102        C837   1.436       .  S
C102        O107   1.274       .  A
O103        C104   1.271       .  A
C104        C841   1.436       .  S
C109        N110   1.357       .  A
C109        N114   1.356   1_545  A
C109        C844   1.437       .  S
N110        C111   1.358   1_545  A
C111        N112   1.363       .  A
C111        C829   1.481       .  S
N112        C113   1.362       .  A
C113        N114   1.357       .  A
C113        C833   1.441       .  S
O115       Mg117   2.152       .  S
O115       Mg123   2.159       .  S
O115        C150   1.236       .  S
C116        O129   1.236       .  S
C116        O153   1.271       .  A
C116        H155   1.081       .  S
Mg117       O146   2.159       .  S
Mg117       O161   2.309       .  S
Mg117       O157   2.283       .  S
Mg117       O128   2.297       .  S
O118       Mg160   2.158       .  S
O118       Mg143   2.149       .  S
O118        C139   1.236       .  S
O119        C150   1.271       .  A
O119       Mg143   2.301       .  S
C120        C920   1.435       .  S
C120        O122   1.271       .  A
C120        O134   1.273       .  A
O121        C149   1.270       .  A
O121       Mg123   2.297       .  S
O122       Mg154   2.267       .  S
Mg123       O129   2.154       .  S
Mg123       O137   2.279       .  S
Mg123       O125   2.308       .  S
C124        C828   1.438       .  S
C124        O162   1.271       .  A
C124        O130   1.274       .  A
O125        C132   1.274       .  A
H126        C139   1.081       .  S
C127        O141   1.236       .  S
C127        O142   1.270       .  A
C127        H152   1.081       .  S
O128        C151   1.270       .  A
O129       Mg143   2.160       .  S
O130       Mg160   2.312       .  S
C131        C823   1.439       .  S
C131        O144   1.271       .  A
C131        O136   1.275       .  A
C132        C826   1.438       .  S
C132        O159   1.272       .  A
Mg133       O140   2.145       .  S
Mg133       O141   2.157       .  S
Mg133       O134   2.301       .  S
Mg133       O135   2.297       .  S
Mg133       O162   2.266       .  S
O135        C139   1.270       .  A
O136       Mg143   2.316       .  S
O137        C156   1.273       .  A
O138        C158   1.273       .  A
O138       Mg154   2.301       .  S
O140       Mg154   2.159       .  S
O140        C151   1.236       .  S
O141       Mg160   2.143       .  S
O142       Mg154   2.297       .  S
Mg143       O159   2.272       .  S
O144       Mg160   2.265       .  S
H145        C150   1.081       .  S
O146       Mg154   2.146       .  S
O146        C149   1.236       .  S
H147        C149   1.081       .  S
H148        C151   1.081       .  S
O153       Mg160   2.301       .  S
C156        C895   1.440       .  S
C156        O161   1.275       .  A
O157        C158   1.273       .  A
C158        C834   1.440       .  S
O163       Mg165   2.140       .  S
O163       Mg171   2.155       .  S
O163        C198   1.236       .  S
C164        O177   1.236       .  S
C164        O201   1.270       .  A
C164        H203   1.081       .  S
Mg165       O194   2.157       .  S
Mg165       O209   2.308       .  S
Mg165       O205   2.259       .  S
Mg165       O176   2.298       .  S
O166       Mg208   2.156       .  S
O166       Mg191   2.146       .  S
O166        C187   1.237       .  S
O167        C198   1.270       .  A
O167       Mg191   2.297       .  S
C168        C818   1.441       .  S
C168        O170   1.273       .  A
C168        O182   1.274       .  A
O169        C197   1.270       .  A
O169       Mg171   2.300       .  S
O170       Mg202   2.280       .  S
Mg171       O177   2.146       .  S
Mg171       O185   2.262       .  S
Mg171       O173   2.303       .  S
C172        C821   1.439       .  S
C172        O210   1.272       .  A
C172        O178   1.275       .  A
O173        C180   1.273       .  A
H174        C187   1.081       .  S
C175        O189   1.236       .  S
C175        O190   1.271       .  A
C175        H200   1.081       .  S
O176        C199   1.270       .  A
O177       Mg191   2.159       .  S
O178       Mg208   2.311       .  S
C179        C912   1.440       .  S
C179        O192   1.272       .  A
C179        O184   1.274       .  A
C180        C849   1.436       .  S
C180        O207   1.271       .  A
Mg181       O188   2.150       .  S
Mg181       O189   2.155       .  S
Mg181       O182   2.309       .  S
Mg181       O183   2.299       .  S
Mg181       O210   2.273       .  S
O183        C187   1.270       .  A
O184       Mg191   2.308       .  S
O185        C204   1.270       .  A
O186        C206   1.275       .  A
O186       Mg202   2.316       .  S
O188       Mg202   2.158       .  S
O188        C199   1.236       .  S
O189       Mg208   2.147       .  S
O190       Mg202   2.299       .  S
Mg191       O207   2.265       .  S
O192       Mg208   2.277       .  S
H193        C198   1.081       .  S
O194       Mg202   2.151       .  S
O194        C197   1.236       .  S
H195        C197   1.081       .  S
H196        C199   1.081       .  S
O201       Mg208   2.298       .  S
C204        C885   1.435       .  S
C204        O209   1.274       .  A
O205        C206   1.270       .  A
C206        C820   1.436       .  S
C211        N212   1.359       .  A
C211        N216   1.358   1_545  A
C211        C822   1.439       .  S
N212        C213   1.359   1_545  A
C213        N214   1.360       .  A
C213        C812   1.479       .  S
N214        C215   1.357       .  A
C215        N216   1.358       .  A
C215        C815   1.437       .  S
O217       Mg219   2.136       .  S
O217       Mg225   2.154       .  S
O217        C252   1.235       .  S
C218        O231   1.236       .  S
C218        O255   1.270       .  A
C218        H257   1.081       .  S
Mg219       O248   2.157       .  S
Mg219       O263   2.299       .  S
Mg219       O259   2.265       .  S
Mg219       O230   2.296       .  S
O220       Mg262   2.157       .  S
O220       Mg245   2.148       .  S
O220        C241   1.236       .  S
O221        C252   1.269       .  A
O221       Mg245   2.292       .  S
C222        C888   1.435       .  S
C222        O224   1.270       .  A
C222        O236   1.274       .  A
O223        C251   1.270       .  A
O223       Mg225   2.297       .  S
O224       Mg256   2.263       .  S
Mg225       O231   2.135       .  S
Mg225       O239   2.258       .  S
Mg225       O227   2.302       .  S
C226        C809   1.434       .  S
C226        O264   1.270       .  A
C226        O232   1.274       .  A
O227        C234   1.273       .  A
H228        C241   1.081       .  S
C229        O243   1.236       .  S
C229        O244   1.270       .  A
C229        H254   1.081       .  S
O230        C253   1.270       .  A
O231       Mg245   2.157       .  S
O232       Mg262   2.304       .  S
C233        C902   1.433       .  S
C233        O246   1.271       .  A
C233        O238   1.272       .  A
C234        C816   1.437       .  S
C234        O261   1.272       .  A
Mg235       O242   2.137       .  S
Mg235       O243   2.155       .  S
Mg235       O236   2.306       .  S
Mg235       O237   2.298       .  S
Mg235       O264   2.260       .  S
O237        C241   1.270       .  A
O238       Mg245   2.293       .  S
O239        C258   1.270       .  A
O240        C260   1.273       .  A
O240       Mg256   2.298       .  S
O242       Mg256   2.155       .  S
O242        C253   1.236       .  S
O243       Mg262   2.144       .  S
O244       Mg256   2.298       .  S
Mg245       O261   2.273       .  S
O246       Mg262   2.266       .  S
H247        C252   1.081       .  S
O248       Mg256   2.142       .  S
O248        C251   1.237       .  S
H249        C251   1.081       .  S
H250        C253   1.081       .  S
O255       Mg262   2.295       .  S
C258        C894   1.432       .  S
C258        O263   1.273       .  A
O259        C260   1.270       .  A
C260        C807   1.435       .  S
C265        N266   1.357       .  A
C265        N270   1.358       .  A
C265        C827   1.438       .  S
N266        C267   1.357   1_455  A
C267        N268   1.357       .  A
C267        C810   1.434       .  S
N268        C269   1.359   1_655  A
C269        N270   1.359       .  A
C269        C803   1.476       .  S
C271        N272   1.356       .  A
C271        N276   1.358       .  A
C271        C842   1.436       .  S
N272        C273   1.356       .  A
C273        N274   1.361   1_554  A
C273        C798   1.477       .  S
N274        C275   1.360       .  A
C275        N276   1.359   1_556  A
C275        C801   1.439       .  S
O277       Mg279   2.152       .  S
O277       Mg285   2.160       .  S
O277        C312   1.237       .  S
C278        O291   1.236       .  S
C278        O315   1.270       .  A
C278        H317   1.081       .  S
Mg279       O308   2.155       .  S
Mg279       O323   2.301       .  S
Mg279       O319   2.279       .  S
Mg279       O290   2.298       .  S
O280       Mg322   2.158       .  S
O280       Mg305   2.142       .  S
O280        C301   1.236       .  S
O281        C312   1.271       .  A
O281       Mg305   2.302       .  S
C282        C861   1.435       .  S
C282        O284   1.271       .  A
C282        O296   1.275       .  A
O283        C311   1.270       .  A
O283       Mg285   2.295       .  S
O284       Mg316   2.260       .  S
Mg285       O291   2.145       .  S
Mg285       O299   2.267       .  S
Mg285       O287   2.300       .  S
C286        C802   1.439       .  S
C286        O324   1.272       .  A
C286        O292   1.274       .  A
O287        C294   1.273       .  A
H288        C301   1.081       .  S
C289        O303   1.237       .  S
C289        O304   1.271       .  A
C289        H314   1.081       .  S
O290        C313   1.270       .  A
O291       Mg305   2.156       .  S
O292       Mg322   2.307       .  S
C293        C871   1.441       .  S
C293        O306   1.272       .  A
C293        O298   1.275       .  A
C294        C795   1.436       .  S
C294        O321   1.271       .  A
Mg295       O302   2.152       .  S
Mg295       O303   2.158       .  S
Mg295       O296   2.310       .  S
Mg295       O297   2.298       .  S
Mg295       O324   2.276       .  S
O297        C301   1.270       .  A
O298       Mg305   2.314       .  S
O299        C318   1.271       .  A
O300        C320   1.276       .  A
O300       Mg316   2.323       .  S
O302       Mg316   2.157       .  S
O302        C313   1.236       .  S
O303       Mg322   2.153       .  S
O304       Mg316   2.301       .  S
Mg305       O321   2.271       .  S
O306       Mg322   2.278       .  S
H307        C312   1.081       .  S
O308       Mg316   2.137       .  S
O308        C311   1.236       .  S
H309        C311   1.081       .  S
H310        C313   1.081       .  S
O315       Mg322   2.297       .  S
C318        C791   1.435       .  S
C318        O323   1.273       .  A
O319        C320   1.272       .  A
C320        C793   1.444       .  S
C325        N326   1.357   1_545  A
C325        N330   1.359       .  A
C325        C796   1.437       .  S
N326        C327   1.357       .  A
C327        N328   1.356       .  A
C327        C789   1.435       .  S
N328        C329   1.359       .  A
C329        N330   1.359   1_565  A
C329        C785   1.478       .  S
O331       Mg333   2.139       .  S
O331       Mg339   2.156       .  S
O331        C366   1.237       .  S
C332        O345   1.236       .  S
C332        O369   1.269       .  A
C332        H371   1.081       .  S
Mg333       O362   2.155       .  S
Mg333       O377   2.302       .  S
Mg333       O373   2.268       .  S
Mg333       O344   2.300       .  S
O334       Mg376   2.153       .  S
O334       Mg359   2.135       .  S
O334        C355   1.236       .  S
O335        C366   1.271       .  A
O335       Mg359   2.297       .  S
C336        C853   1.430       .  S
C336        O338   1.268       .  A
C336        O350   1.272       .  A
O337        C365   1.270       .  A
O337       Mg339   2.295       .  S
O338       Mg370   2.250       .  S
Mg339       O345   2.139       .  S
Mg339       O353   2.262       .  S
Mg339       O341   2.299       .  S
C340        C782   1.432       .  S
C340        O378   1.271       .  A
C340        O346   1.273       .  A
O341        C348   1.273       .  A
H342        C355   1.081       .  S
C343        O357   1.237       .  S
C343        O358   1.271       .  A
C343        H368   1.081       .  S
O344        C367   1.270       .  A
O345       Mg359   2.153       .  S
O346       Mg376   2.297       .  S
C347        C863   1.438       .  S
C347        O360   1.272       .  A
C347        O352   1.275       .  A
C348        C784   1.433       .  S
C348        O375   1.271       .  A
Mg349       O356   2.144       .  S
Mg349       O357   2.157       .  S
Mg349       O350   2.297       .  S
Mg349       O351   2.294       .  S
Mg349       O378   2.262       .  S
O351        C355   1.269       .  A
O352       Mg359   2.311       .  S
O353        C372   1.270       .  A
O354        C374   1.273       .  A
O354       Mg370   2.301       .  S
O356       Mg370   2.155       .  S
O356        C367   1.236       .  S
O357       Mg376   2.145       .  S
O358       Mg370   2.301       .  S
Mg359       O375   2.262       .  S
O360       Mg376   2.269       .  S
H361        C366   1.081       .  S
O362       Mg370   2.131       .  S
O362        C365   1.236       .  S
H363        C365   1.081       .  S
H364        C367   1.081       .  S
O369       Mg376   2.292       .  S
C372        C917   1.434       .  S
C372        O377   1.273       .  A
O373        C374   1.271       .  A
C374        C790   1.435       .  S
C379        N380   1.356       .  A
C379        N384   1.356       .  A
C379        C783   1.434       .  S
N380        C381   1.357       .  A
C381        N382   1.363   1_455  A
C381        C775   1.479       .  S
N382        C383   1.361       .  A
C383        N384   1.357   1_655  A
C383        C779   1.439       .  S
C385        N386   1.364       .  A
C385        N390   1.359       .  A
C385        C794   1.444       .  S
N386        C387   1.364       .  A
C387        N388   1.357   1_455  A
C387        C769   1.479       .  S
N388        C389   1.355   1_655  A
C389        N390   1.356       .  A
C389        C773   1.437   1_455  S
O391       Mg393   2.143       .  S
O391       Mg399   2.155       .  S
O391        C426   1.237       .  S
C392        O405   1.236       .  S
C392        O429   1.270       .  A
C392        H431   1.081       .  S
Mg393       O422   2.155       .  S
Mg393       O437   2.313       .  S
Mg393       O433   2.267       .  S
Mg393       O404   2.300       .  S
O394       Mg436   2.157       .  S
O394       Mg419   2.143       .  S
O394        C415   1.237       .  S
O395        C426   1.270       .  A
O395       Mg419   2.297       .  S
C396        C910   1.438       .  S
C396        O398   1.272       .  A
C396        O410   1.274       .  A
O397        C425   1.270       .  A
O397       Mg399   2.295       .  S
O398       Mg430   2.274       .  S
Mg399       O405   2.137       .  S
Mg399       O413   2.261       .  S
Mg399       O401   2.300       .  S
C400        C768   1.438       .  S
C400        O438   1.272       .  A
C400        O406   1.274       .  A
O401        C408   1.273       .  A
H402        C415   1.081       .  S
C403        O417   1.236       .  S
C403        O418   1.270       .  A
C403        H428   1.081       .  S
O404        C427   1.271       .  A
O405       Mg419   2.153       .  S
O406       Mg436   2.304       .  S
C407        C870   1.437       .  S
C407        O420   1.271       .  A
C407        O412   1.273       .  A
C408        C765   1.434       .  S
C408        O435   1.271       .  A
Mg409       O416   2.146       .  S
Mg409       O417   2.154       .  S
Mg409       O410   2.307       .  S
Mg409       O411   2.298       .  S
Mg409       O438   2.275       .  S
O411        C415   1.271       .  A
O412       Mg419   2.303       .  S
O413        C432   1.270       .  A
O414        C434   1.274       .  A
O414       Mg430   2.309       .  S
O416       Mg430   2.156       .  S
O416        C427   1.237       .  S
O417       Mg436   2.144       .  S
O418       Mg430   2.298       .  S
Mg419       O435   2.267       .  S
O420       Mg436   2.271       .  S
H421        C426   1.081       .  S
O422       Mg430   2.144       .  S
O422        C425   1.236       .  S
H423        C425   1.081       .  S
H424        C427   1.081       .  S
O429       Mg436   2.295       .  S
C432        C880   1.436       .  S
C432        O437   1.275       .  A
O433        C434   1.271       .  A
C434        C774   1.437       .  S
C439        N440   1.359       .  A
C439        N444   1.357   1_545  A
C439        C767   1.439       .  S
N440        C441   1.360   1_545  A
C441        N442   1.361       .  A
C441        C759   1.481       .  S
N442        C443   1.359       .  A
C443        N444   1.357       .  A
C443        C764   1.437       .  S
O445       Mg447   2.138       .  S
O445       Mg453   2.153       .  S
O445        C480   1.236       .  S
C446        O459   1.235       .  S
C446        O483   1.269       .  A
C446        H485   1.081       .  S
Mg447       O476   2.156       .  S
Mg447       O491   2.303       .  S
Mg447       O487   2.259       .  S
Mg447       O458   2.299       .  S
O448       Mg490   2.158       .  S
O448       Mg473   2.143       .  S
O448        C469   1.236       .  S
O449        C480   1.270       .  A
O449       Mg473   2.296       .  S
C450        C780   1.439       .  S
C450        O452   1.272       .  A
C450        O464   1.273       .  A
O451        C479   1.270       .  A
O451       Mg453   2.298       .  S
O452       Mg484   2.275       .  S
Mg453       O459   2.142       .  S
Mg453       O467   2.273       .  S
Mg453       O455   2.304       .  S
C454        C904   1.434       .  S
C454        O492   1.271       .  A
C454        O460   1.272       .  A
O455        C462   1.274       .  A
H456        C469   1.081       .  S
C457        O471   1.235       .  S
C457        O472   1.269       .  A
C457        H482   1.081       .  S
O458        C481   1.271       .  A
O459       Mg473   2.155       .  S
O460       Mg490   2.297       .  S
C461        C763   1.436       .  S
C461        O474   1.270       .  A
C461        O466   1.274       .  A
C462        C856   1.433       .  S
C462        O489   1.271       .  A
Mg463       O470   2.143       .  S
Mg463       O471   2.160       .  S
Mg463       O464   2.303       .  S
Mg463       O465   2.297       .  S
Mg463       O492   2.264       .  S
O465        C469   1.270       .  A
O466       Mg473   2.309       .  S
O467        C486   1.272       .  A
O468        C488   1.273       .  A
O468       Mg484   2.298       .  S
O470       Mg484   2.158       .  S
O470        C481   1.237       .  S
O471       Mg490   2.143       .  S
O472       Mg484   2.296       .  S
Mg473       O489   2.261       .  S
O474       Mg490   2.262       .  S
H475        C480   1.081       .  S
O476       Mg484   2.146       .  S
O476        C479   1.237       .  S
H477        C479   1.081       .  S
H478        C481   1.081       .  S
O483       Mg490   2.295       .  S
C486        C757   1.437       .  S
C486        O491   1.273       .  A
O487        C488   1.270       .  A
C488        C878   1.432       .  S
C493        N494   1.356   1_554  A
C493        N498   1.361       .  A
C493        C825   1.438       .  S
N494        C495   1.355       .  A
C495        N496   1.355       .  A
C495        C781   1.433       .  S
N496        C497   1.356       .  A
C497        N498   1.363   1_556  A
C497        C753   1.477       .  S
C499        N500   1.359       .  A
C499        N504   1.357   1_554  A
C499        C819   1.436       .  S
N500        C501   1.361   1_554  A
C501        N502   1.357       .  A
C501        C749   1.476       .  S
N502        C503   1.356       .  A
C503        N504   1.356       .  A
C503        C766   1.434       .  S
C505        N506   1.356       .  A
C505        N510   1.356       .  A
C505        C808   1.435       .  S
N506        C507   1.357       .  A
C507        N508   1.361   1_554  A
C507        C745   1.477       .  S
N508        C509   1.360       .  A
C509        N510   1.358   1_556  A
C509        C758   1.437       .  S
C511        N512   1.361       .  A
C511        N516   1.359       .  A
C511        C817   1.441       .  S
N512        C513   1.362       .  A
C513        N514   1.356       .  A
C513        C741   1.478       .  S
N514        C515   1.355       .  A
C515        N516   1.358       .  A
C515        C838   1.436       .  S
C517        N518   1.357       .  A
C517        N522   1.357       .  A
C517        C839   1.437       .  S
N518        C519   1.358       .  A
C519        N520   1.359       .  A
C519        C824   1.439       .  S
N520        C521   1.361       .  A
C521        N522   1.358       .  A
C521        C737   1.478       .  S
C523        N524   1.356       .  A
C523        N528   1.357       .  A
C523        C792   1.436       .  S
N524        C525   1.357       .  A
C525        N526   1.361       .  A
C525        C733   1.478       .  S
N526        C527   1.360       .  A
C527        N528   1.358       .  A
C527        C835   1.438       .  S
N529        C534   1.353       .  A
N529        C533   1.355   1_455  A
N529        H561   1.029       .  S
N530        C537   1.353       .  A
N530        C538   1.352   1_565  A
N531        C536   1.354       .  A
N531        C535   1.354   1_455  A
N531        H562   1.031       .  S
N532        C539   1.352       .  A
N532        C540   1.353   1_565  A
C533        C541   1.389   1_655  A
C533        C549   1.422       .  A
C534        C550   1.418       .  A
C534        C542   1.387       .  A
C535        C543   1.388   1_655  A
C535        C552   1.421       .  A
C536        C551   1.418       .  A
C536        C544   1.387       .  A
C537        C549   1.418       .  A
C537        C545   1.387       .  A
C538        C552   1.418       .  A
C538        C546   1.387   1_545  A
C539        C547   1.387       .  A
C539        C550   1.418       .  A
C540        C548   1.387   1_545  A
C540        C551   1.417       .  A
C541        H553   1.082   1_455  S
C541        C542   1.375       .  A
C542        H554   1.082       .  S
C543        H555   1.082   1_455  S
C543        C544   1.376       .  A
C544        H556   1.082       .  S
C545        H557   1.082       .  S
C545        C546   1.374       .  A
C546        H558   1.082   1_565  S
C547        H559   1.082       .  S
C547        C548   1.373       .  A
C548        H560   1.082   1_565  S
C549        C906   1.491       .  S
C550        C922   1.484       .  S
C551        C734   1.487       .  S
C552        C913   1.487       .  S
N563        C568   1.354       .  A
N563        C567   1.353   1_565  A
N563        H595   1.033       .  S
N564        C571   1.353       .  A
N564        C572   1.352   1_554  A
N565        C570   1.353       .  A
N565        C569   1.354   1_565  A
N565        H596   1.032       .  S
N566        C573   1.352   1_556  A
N566        C574   1.352       .  A
C567        C575   1.387   1_545  A
C567        C583   1.418       .  A
C568        C584   1.420       .  A
C568        C576   1.388       .  A
C569        C577   1.388   1_545  A
C569        C586   1.420       .  A
C570        C585   1.419       .  A
C570        C578   1.387       .  A
C571        C583   1.416       .  A
C571        C579   1.387       .  A
C572        C586   1.416       .  A
C572        C580   1.386       .  A
C573        C581   1.386       .  A
C573        C584   1.415       .  A
C574        C582   1.387       .  A
C574        C585   1.416       .  A
C575        H587   1.082   1_565  S
C575        C576   1.377       .  A
C576        H588   1.082       .  S
C577        H589   1.082   1_565  S
C577        C578   1.376       .  A
C578        H590   1.082       .  S
C579        H591   1.082       .  S
C579        C580   1.373   1_554  A
C580        H592   1.082       .  S
C581        H593   1.082       .  S
C581        C582   1.374   1_554  A
C582        H594   1.082       .  S
C583        C742   1.487       .  S
C584        C898   1.487       .  S
C585        C858   1.485       .  S
C586        C874   1.487       .  S
N597        C602   1.354       .  A
N597        C601   1.354   1_455  A
N597        H629   1.033       .  S
N598        C605   1.352   1_556  A
N598        C606   1.352       .  A
N599        C604   1.354       .  A
N599        C603   1.352   1_455  A
N599        H630   1.033       .  S
N600        C607   1.352   1_556  A
N600        C608   1.352       .  A
C601        C609   1.388   1_655  A
C601        C617   1.419       .  A
C602        C618   1.417       .  A
C602        C610   1.387       .  A
C603        C611   1.387   1_655  A
C603        C620   1.416       .  A
C604        C619   1.418       .  A
C604        C612   1.388       .  A
C605        C617   1.418       .  A
C605        C613   1.387       .  A
C606        C620   1.416       .  A
C606        C614   1.386       .  A
C607        C615   1.387       .  A
C607        C618   1.416       .  A
C608        C616   1.386       .  A
C608        C619   1.416       .  A
C609        H621   1.082   1_455  S
C609        C610   1.376       .  A
C610        H622   1.082       .  S
C611        H623   1.082   1_455  S
C611        C612   1.376       .  A
C612        H624   1.082       .  S
C613        H625   1.082       .  S
C613        C614   1.373   1_554  A
C614        H626   1.082       .  S
C615        H627   1.082       .  S
C615        C616   1.373   1_554  A
C616        H628   1.082       .  S
C617        C890   1.488       .  S
C618        C738   1.486       .  S
C619        C866   1.486       .  S
C620        C882   1.484       .  S
N631        C636   1.353   1_554  A
N631        C635   1.353   1_554  A
N631        H663   1.032       .  S
N632        C639   1.352       .  A
N632        C640   1.353   1_556  A
N633        C638   1.354   1_554  A
N633        C637   1.352   1_554  A
N633        H664   1.034       .  S
N634        C641   1.351       .  A
N634        C642   1.351       .  A
C635        C643   1.388       .  A
C635        C651   1.418       .  A
C636        C652   1.418   1_556  A
C636        C644   1.387       .  A
C637        C645   1.386       .  A
C637        C654   1.414   1_556  A
C638        C653   1.418       .  A
C638        C646   1.388       .  A
C639        C651   1.416       .  A
C639        C647   1.386   1_556  A
C640        C654   1.417       .  A
C640        C648   1.386       .  A
C641        C649   1.387       .  A
C641        C652   1.415       .  A
C642        C650   1.386       .  A
C642        C653   1.415   1_554  A
C643        H655   1.082       .  S
C643        C644   1.377       .  A
C644        H656   1.082       .  S
C645        H657   1.082       .  S
C645        C646   1.376       .  A
C646        H658   1.082       .  S
C647        H659   1.082       .  S
C647        C648   1.373       .  A
C648        H660   1.082       .  S
C649        H661   1.082       .  S
C649        C650   1.374       .  A
C650        H662   1.082       .  S
C651        C746   1.485       .  S
C652        C750   1.484       .  S
C653        C797   1.484       .  S
C654        C754   1.488       .  S
N665        C670   1.353   1_455  A
N665        C669   1.352   1_455  A
N665        H697   1.035       .  S
N666        C673   1.352       .  A
N666        C674   1.351       .  A
N667        C672   1.354       .  A
N667        C671   1.355       .  A
N667        H698   1.036       .  S
N668        C675   1.354       .  A
N668        C676   1.353       .  A
C669        C677   1.386       .  A
C669        C685   1.415       .  A
C670        C686   1.419   1_655  A
C670        C678   1.389       .  A
C671        C679   1.388       .  A
C671        C688   1.421       .  A
C672        C687   1.418       .  A
C672        C680   1.387       .  A
C673        C685   1.416   1_455  A
C673        C681   1.387       .  A
C674        C688   1.414       .  A
C674        C682   1.386       .  A
C675        C683   1.387       .  A
C675        C686   1.420       .  A
C676        C684   1.386       .  A
C676        C687   1.418       .  A
C677        H689   1.082       .  S
C677        C678   1.377       .  A
C678        H690   1.082       .  S
C679        H691   1.082       .  S
C679        C680   1.376       .  A
C680        H692   1.082       .  S
C681        H693   1.082       .  S
C681        C682   1.372       .  A
C682        H694   1.082       .  S
C683        H695   1.082       .  S
C683        C684   1.374       .  A
C684        H696   1.082       .  S
C685        C804   1.485       .  S
C686        C776   1.489   1_455  S
C687        C770   1.490       .  S
C688        C845   1.489       .  S
N699        C704   1.354       .  A
N699        C703   1.355       .  A
N699        H731   1.034       .  S
N700        C707   1.354       .  A
N700        C708   1.352       .  A
N701        C706   1.356       .  A
N701        C705   1.355       .  A
N701        H732   1.034       .  S
N702        C709   1.353       .  A
N702        C710   1.354       .  A
C703        C711   1.387       .  A
C703        C719   1.417       .  A
C704        C720   1.418       .  A
C704        C712   1.388       .  A
C705        C713   1.388       .  A
C705        C722   1.420       .  A
C706        C721   1.421       .  A
C706        C714   1.387       .  A
C707        C719   1.416       .  A
C707        C715   1.385       .  A
C708        C722   1.419       .  A
C708        C716   1.388       .  A
C709        C717   1.387       .  A
C709        C720   1.418       .  A
C710        C718   1.386       .  A
C710        C721   1.417       .  A
C711        H723   1.082       .  S
C711        C712   1.375       .  A
C712        H724   1.082       .  S
C713        H725   1.082       .  S
C713        C714   1.375       .  A
C714        H726   1.082       .  S
C715        H727   1.082       .  S
C715        C716   1.373       .  A
C716        H728   1.082       .  S
C717        H729   1.082       .  S
C717        C718   1.372       .  A
C718        H730   1.082       .  S
C719        C760   1.488       .  S
C720        C811   1.488       .  S
C721        C830   1.494       .  S
C722        C786   1.487       .  S
C733        C734   1.342       .  D
C733        H735   1.087       .  S
C734        H736   1.086       .  S
C737        C738   1.343       .  D
C737        H739   1.087       .  S
C738        H740   1.086       .  S
C741        C742   1.341       .  D
C741        H743   1.087       .  S
C742        H744   1.086       .  S
C745        C746   1.342   1_554  D
C745        H747   1.087       .  S
C746        H748   1.086       .  S
C749        C750   1.341   1_556  D
C749        H751   1.087       .  S
C750        H752   1.086       .  S
C753        C754   1.341   1_556  D
C753        H755   1.087       .  S
C754        H756   1.086       .  S
C757        C758   1.207       .  T
C759        C760   1.344       .  D
C759        H761   1.087   1_565  S
C760        H762   1.086       .  S
C763        C764   1.207       .  T
C765        C766   1.205       .  T
C767        C768   1.208       .  T
C769        C770   1.342       .  D
C769        H771   1.087   1_455  S
C770        H772   1.086       .  S
C773        C774   1.207       .  T
C775        C776   1.342   1_455  D
C775        H777   1.087       .  S
C776        H778   1.086       .  S
C779        C780   1.208       .  T
C781        C782   1.204       .  T
C783        C784   1.205       .  T
C785        C786   1.344       .  D
C785        H787   1.087   1_565  S
C786        H788   1.086       .  S
C789        C790   1.206       .  T
C791        C792   1.206       .  T
C793        C794   1.211       .  T
C795        C796   1.207       .  T
C797        C798   1.341   1_556  D
C797        H799   1.086       .  S
C798        H800   1.087       .  S
C801        C802   1.208       .  T
C803        C804   1.344   1_455  D
C803        H805   1.087       .  S
C804        H806   1.086       .  S
C807        C808   1.206       .  T
C809        C810   1.205       .  T
C811        C812   1.344       .  D
C811        H813   1.086       .  S
C812        H814   1.087   1_565  S
C815        C816   1.207       .  T
C817        C818   1.209       .  T
C819        C820   1.206       .  T
C821        C822   1.208       .  T
C823        C824   1.208       .  T
C825        C826   1.208       .  T
C827        C828   1.207       .  T
C829        C830   1.344       .  D
C829        H831   1.087       .  S
C830        H832   1.086       .  S
C833        C834   1.209       .  T
C835        C836   1.207       .  T
C837        C838   1.206       .  T
C839        C840   1.207       .  T
C841        C842   1.206       .  T
C843        C844   1.207       .  T
C845        C846   1.341       .  D
C845        H847   1.087   1_455  S
C846        H848   1.087       .  S
C849        C850   1.206       .  T
C851        C852   1.204       .  T
C853        C854   1.203       .  T
C855        C856   1.205       .  T
C857        C858   1.342       .  D
C857        H859   1.087       .  S
C858        H860   1.086       .  S
C861        C862   1.206       .  T
C863        C864   1.207       .  T
C865        C866   1.341       .  D
C865        H867   1.087       .  S
C866        H868   1.086       .  S
C869        C870   1.207       .  T
C871        C872   1.209       .  T
C873        C874   1.341       .  D
C873        H875   1.087       .  S
C874        H876   1.086       .  S
C877        C878   1.204       .  T
C879        C880   1.207       .  T
C881        C882   1.341       .  D
C881        H883   1.087       .  S
C882        H884   1.086       .  S
C885        C886   1.206       .  T
C887        C888   1.206       .  T
C889        C890   1.343       .  D
C889        H891   1.087       .  S
C890        H892   1.086       .  S
C893        C894   1.204       .  T
C895        C896   1.208       .  T
C897        C898   1.341       .  D
C897        H899   1.087       .  S
C898        H900   1.086       .  S
C901        C902   1.204       .  T
C903        C904   1.205       .  T
C905        C906   1.344       .  D
C905        H907   1.087       .  S
C906        H908   1.086       .  S
C909        C910   1.207       .  T
C911        C912   1.209       .  T
C913        C914   1.344       .  D
C913        H915   1.086       .  S
C914        H916   1.087       .  S
C917        C918   1.205       .  T
C919        C920   1.206       .  T
C921        C922   1.343       .  D
C921        H923   1.087       .  S
C922        H924   1.086       .  S
