geometry optimzed in LAMMPS
_audit_creation_date              2020-12-01 
_audit_creation_method            'lammps2cif' 
_symmetry_space_group_name_H-M    'P1' 
_symmetry_Int_Tables_number       1 
_symmetry_cell_setting            triclinic 
loop_ 
_symmetry_equiv_pos_as_xyz 
  x,y,z 
_cell_length_a                    28.95756504 
_cell_length_b                    28.75003297109658 
_cell_length_c                    29.276211893685712 
_cell_angle_alpha                 90.1914935089998 
_cell_angle_beta                  90.00397844249453 
_cell_angle_gamma                 90.17275937420331 
loop_ 
_atom_site_label 
_atom_site_type_symbol 
_atom_site_fract_x 
_atom_site_fract_y 
_atom_site_fract_z 
_atom_site_charge 
O1          O  0.41726174  0.40772427  0.90913210    -0.74100
O2          O  0.46045266  0.44889455  0.85798022    -0.53000
C3          C  0.42874956  0.41929224  0.86810773     0.79700
O4          O  0.41619677  0.59412432  0.06131970    -0.58700
O5          O  0.45125445  0.55028155  0.11620120    -0.51700
C6          C  0.42361936  0.58251207  0.10302203     0.71700
O7          O  0.41829298  0.58620170  0.90823823    -0.73200
O8          O  0.46431737  0.54760996  0.85760543    -0.53800
C9          C  0.43199871  0.57647159  0.86754819     0.77700
O10         O  0.41779467  0.40243271  0.06493661    -0.58400
O11         O  0.45447222  0.44795631  0.11784964    -0.51500
C12         C  0.42644921  0.41526630  0.10636740     0.74300
Zr13       Zr  0.43967116  0.42769786  0.98772831     2.54700
O14         O  0.35558625  0.42807982  0.98758112    -0.78900
O15         O  0.44175397  0.34307326  0.98509926    -0.92400
Zr16       Zr  0.43944781  0.56643428  0.98612653     2.64700
O17         O  0.35541440  0.56326887  0.98416939    -0.97300
O18         O  0.44054422  0.65091240  0.98029990    -0.79400
O19         O  0.44070427  0.49651332  0.94309239    -0.82700
O20         O  0.43649197  0.49780026  0.03083550    -2.17400
O21         O  0.59501849  0.40572440  0.07096367    -0.66100
O22         O  0.55670221  0.45257328  0.12141704    -0.50700
C23         C  0.58554996  0.42016042  0.11159806     0.72700
O24         O  0.60261110  0.59055969  0.91631555    -0.59000
O25         O  0.56703357  0.54533548  0.86245987    -0.51000
C26         C  0.59540967  0.57754426  0.87481381     0.74500
O27         O  0.59779458  0.58972283  0.06991415    -0.70400
O28         O  0.55196859  0.55204780  0.12128656    -0.49100
C29         C  0.58444112  0.58073686  0.11092824     0.75800
O30         O  0.60513298  0.40642500  0.91657978    -0.65700
O31         O  0.56256688  0.44400229  0.86271289    -0.52900
C32         C  0.59399907  0.41508515  0.87481831     0.74200
Zr33       Zr  0.57681002  0.42851868  0.99256532     2.77500
O34         O  0.66066977  0.42735465  0.99821863    -0.96500
O35         O  0.57361377  0.34394493  0.98961222    -0.77300
Zr36       Zr  0.57638235  0.56767419  0.99204805     2.70100
O37         O  0.66032215  0.56903521  0.99493658    -0.78600
O38         O  0.56960372  0.65207797  0.99271167    -0.97600
Zr39       Zr  0.51207849  0.49673398  0.90292322     2.21500
Zr40       Zr  0.50472826  0.49946892  0.07635341     2.11100
O41         O  0.57596690  0.49860677  0.03577594    -2.46300
O42         O  0.57989334  0.49774177  0.94860702    -0.78400
O43         O  0.50660901  0.42813643  0.03455968    -0.70600
O44         O  0.50987335  0.56762374  0.94493893    -2.31500
O45         O  0.50989833  0.42651349  0.94593442    -2.27700
O46         O  0.50602901  0.56924353  0.03331087    -0.72300
H47         H  0.40909612  0.49790176  0.04969597     0.79700
H48         H  0.51062018  0.59423692  0.92488984     0.80800
H49         H  0.60196460  0.49902632  0.05647693     0.83000
H50         H  0.51057055  0.39959682  0.92613750     0.80600
H51         H  0.46300537  0.66120681  0.00375406     0.43600
H52         H  0.54804105  0.65885601  0.01810292     0.42600
H53         H  0.66928815  0.53586644  0.99329107     0.42300
H54         H  0.66804847  0.44824377  0.02417835     0.40200
H55         H  0.54088672  0.33620476  0.99580450     0.43400
H56         H  0.45666026  0.33538760  0.95560387     0.38100
H57         H  0.34723958  0.45485699  0.96809658     0.44300
H58         H  0.34594993  0.55536723  0.01570368     0.40700
H59         H  0.66799407  0.39579361  0.00951338     0.45600
H60         H  0.40909270  0.33365777  0.98099936     0.44300
H61         H  0.34580943  0.59603435  0.98020111     0.44400
H62         H  0.59994805  0.66329712  0.00385217     0.44800
O63         O  0.43418984  0.92128047  0.39081751    -0.74100
O64         O  0.46761329  0.86822521  0.43809605    -0.53000
C65         C  0.44154770  0.87940371  0.40439784     0.79700
O66         O  0.61310157  0.07857840  0.40568873    -0.58700
O67         O  0.56639178  0.13129779  0.44119855    -0.51700
C68         C  0.59867805  0.12029517  0.41313757     0.71700
O69         O  0.61510462  0.92177850  0.40848222    -0.73200
O70         O  0.56756245  0.86873176  0.44262851    -0.53800
C71         C  0.60097256  0.88000704  0.41594407     0.77700
O72         O  0.43234440  0.07873026  0.39317433    -0.58400
O73         O  0.46620121  0.13157110  0.44105636    -0.51500
C74         C  0.43943811  0.12053200  0.40768304     0.74300
Zr75       Zr  0.45424440  0.99990822  0.41567502     2.54700
O76         O  0.46636370  0.99956565  0.33337305    -0.78900
O77         O  0.37059254  0.00002227  0.40732567    -0.92400
Zr78       Zr  0.59113193  0.00011687  0.42998483     2.64700
O79         O  0.59774323  0.99601394  0.34712631    -0.97300
O80         O  0.67429850  0.00275170  0.44175952    -0.79400
O81         O  0.52265817  0.95524454  0.42193761    -0.82700
O82         O  0.52274285  0.04453040  0.42191146    -2.17400
O83         O  0.41561399  0.07968829  0.57061920    -0.66100
O84         O  0.46500742  0.13234085  0.53870060    -0.50700
C85         C  0.43044745  0.12144852  0.56396552     0.72700
O86         O  0.59473704  0.92021699  0.59082447    -0.59000
O87         O  0.55993507  0.86748619  0.54392507    -0.51000
C88         C  0.58599252  0.87815441  0.57787839     0.74500
O89         O  0.60082870  0.07801174  0.58798815    -0.70400
O90         O  0.56625853  0.13118146  0.54180909    -0.49100
C91         C  0.59371931  0.12000367  0.57447169     0.75800
O92         O  0.41904400  0.92174813  0.57525311    -0.65700
O93         O  0.46414170  0.86800891  0.53918296    -0.52900
C94         C  0.43221064  0.87971183  0.56736246     0.74200
Zr95       Zr  0.43937548  0.00038950  0.55073202     2.77500
O96         O  0.42500186  0.00094541  0.63269850    -0.96500
O97         O  0.35715334  0.99726597  0.53347838    -0.77300
Zr98       Zr  0.57666599  0.99947845  0.56571541     2.70100
O99         O  0.56447282  0.00154993  0.64800067    -0.78600
O100        O  0.66015717  0.99625679  0.57471834    -0.97600
Zr101      Zr  0.51507900  0.91207348  0.49052170     2.21500
Zr102      Zr  0.51616602  0.08780798  0.49099231     2.11100
O103        O  0.50836977  0.04442047  0.55973419    -2.46300
O104        O  0.50758569  0.95562825  0.55912805    -0.78400
O105        O  0.44630173  0.04500306  0.48324025    -0.70600
O106        O  0.58497453  0.95516110  0.49770335    -2.31500
O107        O  0.44543162  0.95519145  0.48319340    -2.27700
O108        O  0.58550485  0.04449526  0.49823373    -0.72300
H109        H  0.52476641  0.06456493  0.39557084     0.79700
H110        H  0.61126591  0.93469667  0.50029557     0.80800
H111        H  0.50605950  0.06464449  0.58602790     0.83000
H112        H  0.41890659  0.93481335  0.48079064     0.80600
H113        H  0.68076235  0.97659148  0.46269646     0.43600
H114        H  0.67204956  0.02192092  0.55550912     0.42600
H115        H  0.59506947  0.00959938  0.66094734     0.42300
H116        H  0.45089174  0.01921705  0.64575027     0.40200
H117        H  0.35221783  0.02276195  0.51136774     0.43400
H118        H  0.35972444  0.97373650  0.42630506     0.38100
H119        H  0.49748201  0.98599688  0.32929754     0.44300
H120        H  0.58157167  0.02399310  0.33579598     0.40700
H121        H  0.39749268  0.02085828  0.63696713     0.45600
H122        H  0.36511180  0.98973389  0.37546828     0.44300
H123        H  0.63080203  0.00208858  0.34084061     0.44400
H124        H  0.66585670  0.00670275  0.60648964     0.44800
O125        O  0.93456193  0.59336502  0.39558803    -0.74100
O126        O  0.88143280  0.55249116  0.43673575    -0.53000
C127        C  0.89282646  0.58177199  0.40561030     0.79700
O128        O  0.09093173  0.41295456  0.39920635    -0.58700
O129        O  0.14424210  0.45305244  0.44149518    -0.51700
C130        C  0.13270191  0.42274707  0.41115041     0.71700
O131        O  0.93392572  0.41544879  0.39590692    -0.73200
O132        O  0.88160318  0.45275495  0.44140207    -0.53800
C133        C  0.89237061  0.42450121  0.40904388     0.77700
O134        O  0.08944067  0.59880010  0.39838771    -0.58400
O135        O  0.14274477  0.55802704  0.43903651    -0.51500
C136        C  0.13127793  0.58845916  0.40900057     0.74300
Zr137      Zr  0.01222597  0.57427891  0.42107962     2.54700
O138        O  0.01447652  0.57217195  0.33802379    -0.78900
O139        O  0.00831061  0.65879258  0.42325541    -0.92400
Zr140      Zr  0.01234100  0.43597216  0.42079114     2.64700
O141        O  0.01332917  0.43684559  0.33758739    -0.97300
O142        O  0.01146035  0.35133632  0.42348287    -0.79400
O143        O  0.96772400  0.50499623  0.42052396    -0.82700
O144        O  0.05695046  0.50534996  0.41971757    -2.17400
O145        O  0.09012213  0.60075225  0.57739606    -0.66100
O146        O  0.14322768  0.55464735  0.54169253    -0.50700
C147        C  0.13169556  0.58719026  0.56964507     0.72700
O148        O  0.93461796  0.41576162  0.58163646    -0.59000
O149        O  0.88106879  0.45922079  0.54379513    -0.51000
C150        C  0.89281970  0.42835116  0.57321570     0.74500
O151        O  0.09121254  0.41351758  0.57716853    -0.70400
O152        O  0.14430468  0.45499051  0.53656392    -0.49100
C153        C  0.13304932  0.42405306  0.56604697     0.75800
O154        O  0.93410969  0.59560379  0.58222579    -0.65700
O155        O  0.88110593  0.55773857  0.53787689    -0.52900
C156        C  0.89231076  0.58622935  0.56997249     0.74200
Zr157      Zr  0.01227814  0.57566963  0.55688338     2.77500
O158        O  0.01549448  0.57543297  0.64006196    -0.96500
O159        O  0.00951015  0.66023152  0.55413722    -0.77300
Zr160      Zr  0.01256406  0.43686026  0.55694401     2.70100
O161        O  0.01366424  0.43831663  0.64006670    -0.78600
O162        O  0.00922625  0.35231303  0.55398754    -0.97600
Zr163      Zr  0.92466336  0.50540990  0.48969268     2.21500
Zr164      Zr  0.10022330  0.50617144  0.48883342     2.11100
O165        O  0.05674162  0.50640109  0.55793533    -2.46300
O166        O  0.96822036  0.50603760  0.55834428    -0.78400
O167        O  0.05711354  0.57648239  0.48888761    -0.70600
O168        O  0.96787495  0.43500732  0.48911126    -2.31500
O169        O  0.96765100  0.57611187  0.48901097    -2.27700
O170        O  0.05688489  0.43576120  0.48884382    -0.72300
H171        H  0.07711274  0.50540919  0.39341858     0.79700
H172        H  0.94776104  0.40812108  0.48938656     0.80800
H173        H  0.07679661  0.50637538  0.58430176     0.83000
H174        H  0.94747726  0.60283666  0.48874624     0.80600
H175        H  0.03325098  0.34340381  0.44830149     0.43600
H176        H  0.03593948  0.34323240  0.53487682     0.42600
H177        H  0.99285901  0.46426447  0.64842966     0.42300
H178        H  0.04181107  0.55497874  0.64771940     0.40200
H179        H  0.01766764  0.66800979  0.52223434     0.43400
H180        H  0.01222314  0.66833834  0.39102102     0.38100
H181        H  0.99946465  0.54231013  0.32981527     0.44300
H182        H  0.03728802  0.46002596  0.32948326     0.40700
H183        H  0.02615575  0.60708553  0.64845929     0.45600
H184        H  0.03731470  0.66865613  0.43840031     0.44300
H185        H  0.02687550  0.40654951  0.32872369     0.44400
H186        H  0.01766306  0.34231840  0.58521373     0.44800
C187        C  0.73618940  0.33628094  0.32166608     0.81400
N188        N  0.71633178  0.35566200  0.28423053    -0.76900
C189        C  0.67796521  0.33620562  0.26521845     0.83900
N190        N  0.65955908  0.29723878  0.28409478    -0.76800
C191        C  0.67936130  0.27747440  0.32124585     0.84000
N192        N  0.71754358  0.29719438  0.33996289    -0.78500
C193        C  0.74250528  0.67073165  0.31215698     0.81400
N194        N  0.72010062  0.65107924  0.27621971    -0.76900
C195        C  0.68062958  0.67029969  0.26009790     0.83900
N196        N  0.66317524  0.70876301  0.28071932    -0.76800
C197        C  0.68540123  0.72882337  0.31666126     0.84000
N198        N  0.72518685  0.70960298  0.33220608    -0.78500
C199        C  0.68857403  0.32665229  0.72430234     0.81400
N200        N  0.67066167  0.28818742  0.70387332    -0.76900
C201        C  0.68926403  0.27159020  0.66459323     0.83900
N202        N  0.72560543  0.29414962  0.64531191    -0.76800
C203        C  0.74399330  0.33266067  0.66553267     0.84000
N204        N  0.72512747  0.34892080  0.70502083    -0.78500
C205        C  0.34257189  0.73169657  0.31319300     0.81400
N206        N  0.30521979  0.71257436  0.33379387    -0.76900
C207        C  0.28130440  0.67782605  0.31313201     0.83900
N208        N  0.29573873  0.66119257  0.27205293    -0.76800
C209        C  0.33389869  0.67927864  0.25140209     0.84000
N210        N  0.35682514  0.71485057  0.27221585    -0.78500
C211        C  0.34303982  0.67112428  0.71907217     0.81400
N212        N  0.30264439  0.65430263  0.70237217    -0.76900
C213        C  0.28192161  0.67490988  0.66618045     0.83900
N214        N  0.30183957  0.71299915  0.64700773    -0.76800
C215        C  0.34238258  0.73004695  0.66351848     0.84000
N216        N  0.36308142  0.70861608  0.69924735    -0.78500
C217        C  0.33900258  0.33096613  0.71446132     0.81400
N218        N  0.30125268  0.35005073  0.69453193    -0.76900
C219        C  0.28289155  0.33057291  0.65635525     0.83900
N220        N  0.30270894  0.29229268  0.63769682    -0.76800
C221        C  0.34040259  0.27289929  0.65741465     0.84000
N222        N  0.35857875  0.29245358  0.69577628    -0.78500
C223        C  0.68785843  0.67258523  0.72760610     0.81400
N224        N  0.72504083  0.65417969  0.70575763    -0.76900
C225        C  0.74020955  0.67258454  0.66579289     0.83900
N226        N  0.71742240  0.70916751  0.64731941    -0.76800
C227        C  0.68081781  0.72833039  0.66928945     0.84000
N228        N  0.66605607  0.70998709  0.70938708    -0.78500
C229        C  0.34283196  0.27137719  0.31984872     0.81400
N230        N  0.35956589  0.28927299  0.28026468    -0.76900
C231        C  0.33937231  0.32698156  0.26102867     0.83900
N232        N  0.30200914  0.34650501  0.28154011    -0.76800
C233        C  0.28436491  0.32865535  0.32080085     0.84000
N234        N  0.30539858  0.29126115  0.33994018    -0.78500
C235        C  0.16574861  0.38280152  0.63394633     0.24800
C236        C  0.17106791  0.39905261  0.58892367    -0.23300
C237        C  0.21351409  0.39201328  0.56633937     0.19700
C238        C  0.24944504  0.36862543  0.58812005     0.24800
C239        C  0.24412724  0.35310783  0.63315396    -0.23200
C240        C  0.20226776  0.36054965  0.65607080     0.19700
F241        F  0.19662212  0.34583468  0.69973192    -0.13200
F242        F  0.12571101  0.38970971  0.65709624    -0.15500
F243        F  0.29009011  0.36247254  0.56577007    -0.15600
F244        F  0.22035132  0.40757482  0.52312326    -0.13200
C245        C  0.20052071  0.58294022  0.62015372     0.24800
C246        C  0.16883038  0.60997691  0.59566717    -0.23300
C247        C  0.17240839  0.65866920  0.59703620     0.19700
C248        C  0.20847514  0.68005902  0.62106843     0.24800
C249        C  0.24108877  0.65299235  0.64464738    -0.23200
C250        C  0.23601752  0.60420774  0.64488971     0.19700
F251        F  0.26630336  0.57679053  0.66771394    -0.13200
F252        F  0.19673645  0.53583259  0.62057275    -0.15500
F253        F  0.21131104  0.72720893  0.62151152    -0.15600
F254        F  0.14179438  0.68542530  0.57391198    -0.13200
C255        C  0.16294267  0.62853304  0.33937079     0.24800
C256        C  0.16898023  0.61290280  0.38461928    -0.23300
C257        C  0.21194322  0.61993379  0.40610050     0.19700
C258        C  0.24818975  0.64134830  0.38272478     0.24800
C259        C  0.24245864  0.65581136  0.33732074    -0.23200
C260        C  0.19957805  0.64946417  0.31582262     0.19700
F261        F  0.19291255  0.66439547  0.27237133    -0.13200
F262        F  0.12198015  0.62263380  0.31748362    -0.15500
F263        F  0.28943375  0.64689621  0.40416667    -0.15600
F264        F  0.21880421  0.60665717  0.45005301    -0.13200
C265        C  0.19560045  0.36354786  0.41097409     0.24800
C266        C  0.17024175  0.39762559  0.38787586    -0.23300
C267        C  0.18092067  0.40766311  0.34229825     0.19700
C268        C  0.21713396  0.38458901  0.32016116     0.24800
C269        C  0.24391151  0.35116742  0.34350330    -0.23200
C270        C  0.23199808  0.34042617  0.38912442     0.19700
F271        F  0.25565528  0.30789890  0.41305684    -0.13200
F272        F  0.18460868  0.35211423  0.45459043    -0.15500
F273        F  0.22546944  0.39486514  0.27568755    -0.15600
F274        F  0.15663822  0.44051274  0.31940081    -0.13200
C275        C  0.81488031  0.62475219  0.57046604     0.24800
C276        C  0.85418690  0.60971399  0.59446767    -0.23300
C277        C  0.85604314  0.61620139  0.64209321     0.19700
C278        C  0.81873123  0.63610985  0.66540680     0.24800
C279        C  0.77961855  0.65142339  0.64132795    -0.23200
C280        C  0.77828498  0.64603259  0.59357394     0.19700
F281        F  0.74091926  0.66015642  0.56931655    -0.13200
F282        F  0.81215750  0.61949750  0.52441861    -0.15500
F283        F  0.82118530  0.64114158  0.71147574    -0.15600
F284        F  0.89345216  0.60210080  0.66627658    -0.13200
C285        C  0.85265632  0.35579176  0.59684018     0.24800
C286        C  0.85558963  0.40447601  0.59830789    -0.23300
C287        C  0.82238635  0.42973322  0.62300027     0.19700
C288        C  0.78668996  0.40644229  0.64595622     0.24800
C289        C  0.78301582  0.35755470  0.64353536    -0.23200
C290        C  0.81647461  0.33255892  0.61873954     0.19700
F291        F  0.81456000  0.28544145  0.61608958    -0.13200
F292        F  0.88420497  0.33075804  0.57291539    -0.15500
F293        F  0.75500474  0.43183823  0.66933634    -0.15600
F294        F  0.82488985  0.47686960  0.62535737    -0.13200
C295        C  0.77985453  0.36029775  0.39141611     0.24800
C296        C  0.77676525  0.35824992  0.34351127    -0.23300
C297        C  0.81263782  0.37730294  0.31702435     0.19700
C298        C  0.85110616  0.39781678  0.33817487     0.24800
C299        C  0.85368856  0.40045766  0.38608089    -0.23200
C300        C  0.81767461  0.38164229  0.41244300     0.19700
F301        F  0.81932826  0.38357869  0.45878493    -0.13200
F302        F  0.74556187  0.34281872  0.41801207    -0.15500
F303        F  0.88501833  0.41644531  0.31188539    -0.15600
F304        F  0.81080378  0.37533861  0.27071297    -0.13200
C305        C  0.81383218  0.57955373  0.37099294     0.24800
C306        C  0.85520427  0.60390955  0.37959893    -0.23300
C307        C  0.85993390  0.64988867  0.36371763     0.19700
C308        C  0.82364659  0.67131079  0.34045960     0.24800
C309        C  0.78224586  0.64714919  0.33269277    -0.23200
C310        C  0.77776995  0.60097771  0.34751119     0.19700
F311        F  0.73769840  0.57723703  0.34086329    -0.13200
F312        F  0.80821051  0.53498940  0.38528748    -0.15500
F313        F  0.82892472  0.71561463  0.32537418    -0.15600
F314        F  0.89892785  0.67478374  0.37229988    -0.13200
C315        C  0.65760675  0.19055785  0.66494256     0.24800
C316        C  0.66737812  0.23177576  0.64116079    -0.23300
C317        C  0.65353919  0.23587041  0.59544163     0.19700
C318        C  0.62950867  0.19968774  0.57394175     0.24800
C319        C  0.61933910  0.15824014  0.59761787    -0.23200
C320        C  0.63405081  0.15395447  0.64334612     0.19700
F321        F  0.62449998  0.11495937  0.66767224    -0.13200
F322        F  0.67122758  0.18564379  0.70904642    -0.15500
F323        F  0.61649575  0.20526793  0.52973636    -0.15600
F324        F  0.66173369  0.27574986  0.57203718    -0.13200
C325        C  0.35870676  0.16097103  0.59143302     0.24800
C326        C  0.40707343  0.15977989  0.58805841    -0.23300
C327        C  0.43335516  0.19567678  0.60807752     0.19700
C328        C  0.41168754  0.23175435  0.63176134     0.24800
C329        C  0.36329145  0.23305046  0.63515201    -0.23200
C330        C  0.33696341  0.19737734  0.61475443     0.19700
F331        F  0.29017449  0.19755039  0.61776096    -0.13200
F332        F  0.33247553  0.12783321  0.57071946    -0.15500
F333        F  0.43802311  0.26632358  0.64993103    -0.15600
F334        F  0.48016979  0.19566401  0.60500974    -0.13200
C335        C  0.39617476  0.19550979  0.41104405     0.24800
C336        C  0.41446832  0.15874581  0.38494403    -0.23300
C337        C  0.40847804  0.15891278  0.33727169     0.19700
C338        C  0.38528669  0.19561858  0.31602486     0.24800
C339        C  0.36676887  0.23222535  0.34218394    -0.23200
C340        C  0.37231661  0.23172904  0.38991175     0.19700
F341        F  0.35583648  0.26704348  0.41609902    -0.13200
F342        F  0.40052940  0.19590071  0.45724659    -0.15500
F343        F  0.38028407  0.19497772  0.26991168    -0.15600
F344        F  0.42595080  0.12406260  0.31112732    -0.13200
C345        C  0.59121484  0.19439510  0.37001934     0.24800
C346        C  0.61950641  0.15864617  0.38693261    -0.23300
C347        C  0.66740449  0.16085664  0.37967218     0.19700
C348        C  0.68694807  0.19951751  0.35804259     0.24800
C349        C  0.65871907  0.23578040  0.34216829    -0.23200
C350        C  0.61062651  0.23248218  0.34758350     0.19700
F351        F  0.58250279  0.26703954  0.33282855    -0.13200
F352        F  0.54460066  0.19228627  0.37496713    -0.15500
F353        F  0.73344852  0.20142086  0.35236159    -0.15600
F354        F  0.69540540  0.12643229  0.39489531    -0.13200
C355        C  0.33938189  0.80625047  0.62263561     0.24800
C356        C  0.36544310  0.76948233  0.64075693    -0.23300
C357        C  0.41380273  0.77008104  0.63589140     0.19700
C358        C  0.43545247  0.80573152  0.61160013     0.24800
C359        C  0.40928015  0.84211721  0.59290075    -0.23200
C360        C  0.36119120  0.84249376  0.59924982     0.19700
F361        F  0.33518764  0.87744376  0.58187486    -0.13200
F362        F  0.29288378  0.80763033  0.62841481    -0.15500
F363        F  0.48215129  0.80518374  0.60719568    -0.15600
F364        F  0.44014750  0.73561590  0.65373197    -0.13200
C365        C  0.61217930  0.79486275  0.58214455     0.24800
C366        C  0.60827013  0.83916784  0.60286078    -0.23300
C367        C  0.62722842  0.84579832  0.64686957     0.19700
C368        C  0.65005296  0.80937482  0.66904220     0.24800
C369        C  0.65488784  0.76605752  0.64748206    -0.23200
C370        C  0.63557222  0.75895177  0.60415131     0.19700
F371        F  0.63930684  0.71695046  0.58310096    -0.13200
F372        F  0.59472384  0.78635145  0.53986608    -0.15500
F373        F  0.66900028  0.81690336  0.71085039    -0.15600
F374        F  0.62397861  0.88750087  0.66850140    -0.13200
C375        C  0.69206509  0.80124122  0.36496659     0.24800
C376        C  0.66444441  0.76887251  0.34093655    -0.23300
C377        C  0.61609535  0.77426628  0.34150171     0.19700
C378        C  0.59585146  0.81030704  0.36630778     0.24800
C379        C  0.62334447  0.84212755  0.39054336    -0.23200
C380        C  0.67160520  0.83783356  0.38929504     0.19700
F381        F  0.69880130  0.86848241  0.41236827    -0.13200
F382        F  0.73883374  0.79800777  0.36432554    -0.15500
F383        F  0.54916539  0.81482853  0.36578862    -0.15600
F384        F  0.58804105  0.74407827  0.31890849    -0.13200
C385        C  0.40906906  0.84333584  0.33321755     0.24800
C386        C  0.41715564  0.84136385  0.38054850    -0.23300
C387        C  0.40031177  0.80320789  0.40554111     0.19700
C388        C  0.37601909  0.76758935  0.38361346     0.24800
C389        C  0.36854333  0.76918734  0.33618851    -0.23200
C390        C  0.38531340  0.80728844  0.31115789     0.19700
F391        F  0.37716517  0.81047372  0.26560680    -0.13200
F392        F  0.42425130  0.88005742  0.30826774    -0.15500
F393        F  0.36013323  0.73133380  0.40880550    -0.15600
F394        F  0.40579213  0.80123829  0.45158712    -0.13200
C395        C  0.63170601  0.32979930  0.19294396     0.24800
C396        C  0.65564422  0.35763027  0.22492643    -0.23300
C397        C  0.65710629  0.40614709  0.21846140     0.19700
C398        C  0.63415994  0.42638727  0.18152427     0.24800
C399        C  0.61017801  0.39850262  0.14992836    -0.23200
C400        C  0.60959925  0.35008191  0.15551958     0.19700
F401        F  0.58648498  0.32254009  0.12541118    -0.13200
F402        F  0.63016295  0.28283255  0.19748045    -0.15500
F403        F  0.63588881  0.47327987  0.17619285    -0.15600
F404        F  0.67962997  0.43422930  0.24852210    -0.13200
C405        C  0.58473863  0.61817396  0.18850046     0.24800
C406        C  0.60874541  0.60462827  0.14882451    -0.23300
C407        C  0.65651918  0.61350040  0.14593504     0.19700
C408        C  0.67990305  0.63472149  0.18226518     0.24800
C409        C  0.65584539  0.64831240  0.22171592    -0.23200
C410        C  0.60806644  0.64014935  0.22448110     0.19700
F411        F  0.58420909  0.65221219  0.26263156    -0.13200
F412        F  0.53852951  0.61090013  0.19216566    -0.15500
F413        F  0.72599479  0.64273027  0.17859106    -0.15600
F414        F  0.68088898  0.60060276  0.10836875    -0.13200
C415        C  0.35845963  0.59031381  0.15780955     0.24800
C416        C  0.39876860  0.60853861  0.13837024    -0.23300
C417        C  0.41554669  0.65173259  0.15303347     0.19700
C418        C  0.39330534  0.67589127  0.18819819     0.24800
C419        C  0.35374471  0.65691596  0.20970322    -0.23200
C420        C  0.33606417  0.61413023  0.19315804     0.19700
F421        F  0.29806286  0.59419567  0.21201571    -0.13200
F422        F  0.34110247  0.54904958  0.14289626    -0.15500
F423        F  0.41148436  0.71728986  0.20169910    -0.15600
F424        F  0.45437273  0.66991728  0.13404317    -0.13200
C425        C  0.39937901  0.34309274  0.14663710     0.24800
C426        C  0.40203954  0.39184285  0.14412192    -0.23300
C427        C  0.38316687  0.41879665  0.17959585     0.19700
C428        C  0.36212074  0.39759385  0.21701946     0.24800
C429        C  0.35995063  0.34885274  0.22011086    -0.23200
C430        C  0.37883780  0.32170680  0.18460263     0.19700
F431        F  0.37705576  0.27455274  0.18646821    -0.13200
F432        F  0.41816383  0.31625198  0.11325928    -0.15500
F433        F  0.34544729  0.42489273  0.25114230    -0.15600
F434        F  0.38503996  0.46596004  0.17796286    -0.13200
C435        C  0.66508532  0.59961698  0.76785601     0.24800
C436        C  0.66757972  0.64852317  0.76739326    -0.23300
C437        C  0.64729801  0.67384786  0.80332761     0.19700
C438        C  0.62483418  0.65062946  0.83897102     0.24800
C439        C  0.62130207  0.60182497  0.83864188    -0.23200
C440        C  0.64173758  0.57653030  0.80289953     0.19700
F441        F  0.63912152  0.52936343  0.80190651    -0.13200
F442        F  0.68321668  0.57413117  0.73312431    -0.15500
F443        F  0.60476428  0.67591895  0.87279403    -0.15600
F444        F  0.64899393  0.72105581  0.80382406    -0.13200
C445        C  0.66485717  0.37613106  0.84211052     0.24800
C446        C  0.61837997  0.38998803  0.83760998    -0.23300
C447        C  0.59520145  0.38075390  0.79619111     0.19700
C448        C  0.61813388  0.35942036  0.75987964     0.24800
C449        C  0.66476725  0.34717433  0.76387441    -0.23200
C450        C  0.68801305  0.35537397  0.80521709     0.19700
F451        F  0.73291590  0.34280605  0.80994420    -0.13200
F452        F  0.68825053  0.38375867  0.88163487    -0.15500
F453        F  0.59507849  0.35202896  0.72009359    -0.15600
F454        F  0.54999984  0.39197634  0.79082489    -0.13200
C455        C  0.39164026  0.34957722  0.83133850     0.24800
C456        C  0.40395028  0.39695415  0.82958724    -0.23300
C457        C  0.39340820  0.42264101  0.79004567     0.19700
C458        C  0.37106980  0.40134986  0.75310764     0.24800
C459        C  0.36036349  0.35369727  0.75436463    -0.23200
C460        C  0.37089638  0.32793005  0.79362033     0.19700
F461        F  0.36041467  0.28191986  0.79564993    -0.13200
F462        F  0.40086163  0.32387586  0.86904684    -0.15500
F463        F  0.36112910  0.42699415  0.71549992    -0.15600
F464        F  0.40414055  0.46857770  0.78736391    -0.13200
C465        C  0.43490719  0.61479729  0.79127460     0.24800
C466        C  0.40918616  0.60073772  0.82958557    -0.23300
C467        C  0.36171544  0.61090689  0.83165138     0.19700
C468        C  0.34017432  0.63374535  0.79549610     0.24800
C469        C  0.36588941  0.64754032  0.75721356    -0.23200
C470        C  0.41344705  0.63825271  0.75546220     0.19700
F471        F  0.43897040  0.65101361  0.71864389    -0.13200
F472        F  0.48110020  0.60703382  0.78908368    -0.15500
F473        F  0.29439053  0.64345146  0.79835896    -0.15600
F474        F  0.33600526  0.59823281  0.86838235    -0.13200
loop_ 
_geom_bond_atom_site_label_1 
_geom_bond_atom_site_label_2 
_geom_bond_distance 
_geom_bond_site_symmetry_2 
_ccdc_geom_bond_type 
O1          Zr13   2.456       .  S
O1            C3   1.291       .  A
O2          Zr39   2.415       .  S
O2            C3   1.285       .  A
C3          C456   1.481       .  S
O4          Zr16   2.434   1_554  S
O4            C6   1.285       .  A
O5          Zr40   2.428       .  S
O5            C6   1.286       .  A
C6          C416   1.465       .  S
O7          Zr16   2.431       .  S
O7            C9   1.286       .  A
O8          Zr39   2.416       .  S
O8            C9   1.285       .  A
C9          C466   1.472       .  S
O10         Zr13   2.459   1_554  S
O10          C12   1.291       .  A
O11         Zr40   2.405       .  S
O11          C12   1.284       .  A
C12         C426   1.475       .  S
Zr13         O14   2.435       .  S
Zr13         O15   2.435       .  S
Zr13         O19   2.375       .  S
Zr13         O20   2.376   1_556  S
Zr13         O43   2.374   1_556  S
Zr13         O45   2.374       .  S
O14          H57   0.990       .  S
O15          H56   0.990       .  S
O15          H60   0.990       .  S
Zr16         O17   2.435       .  S
Zr16         O18   2.435       .  S
Zr16         O20   2.373   1_556  S
Zr16         O19   2.369       .  S
Zr16         O44   2.369       .  S
Zr16         O46   2.373   1_556  S
O17          H58   0.990   1_556  S
O17          H61   0.990       .  S
O18          H51   0.990   1_556  S
O19         Zr39   2.378       .  S
O20         Zr40   2.384       .  S
O20          H47   0.967       .  S
O21         Zr33   2.447   1_554  S
O21          C23   1.288       .  A
O22         Zr40   2.418       .  S
O22          C23   1.285       .  A
C23         C399   1.471       .  S
O24         Zr36   2.436       .  S
O24          C26   1.287       .  A
O25         Zr39   2.426       .  S
O25          C26   1.287       .  A
C26         C439   1.474       .  S
O27         Zr36   2.444   1_554  S
O27          C29   1.288       .  A
O28         Zr40   2.421       .  S
O28          C29   1.286       .  A
C29         C406   1.480       .  S
O30         Zr33   2.453       .  S
O30          C32   1.290       .  A
O31         Zr39   2.413       .  S
O31          C32   1.285       .  A
C32         C446   1.484       .  S
Zr33         O34   2.434       .  S
Zr33         O35   2.434       .  S
Zr33         O41   2.376   1_556  S
Zr33         O42   2.375       .  S
Zr33         O45   2.371       .  S
Zr33         O43   2.376   1_556  S
O34          H54   0.990   1_556  S
O34          H59   0.990   1_556  S
O35          H55   0.990       .  S
Zr36         O37   2.432       .  S
Zr36         O38   2.435       .  S
Zr36         O42   2.378       .  S
Zr36         O41   2.366   1_556  S
Zr36         O46   2.369   1_556  S
Zr36         O44   2.369       .  S
O37          H53   0.990       .  S
O38          H52   0.990   1_556  S
O38          H62   0.990   1_556  S
Zr39         O42   2.376       .  S
Zr39         O44   2.378       .  S
Zr39         O45   2.384       .  S
Zr40         O41   2.381       .  S
Zr40         O43   2.385       .  S
Zr40         O46   2.373       .  S
O41          H49   0.966       .  S
O44          H48   0.966       .  S
O45          H50   0.966       .  S
O63         Zr75   2.441       .  S
O63          C65   1.288       .  A
O64        Zr101   2.410       .  S
O64          C65   1.284       .  A
C65         C386   1.474       .  S
O66         Zr78   2.450       .  S
O66          C68   1.289       .  A
O67        Zr102   2.409       .  S
O67          C68   1.284       .  A
C68         C346   1.473       .  S
O69         Zr78   2.439   1_565  S
O69          C71   1.287       .  A
O70        Zr101   2.414       .  S
O70          C71   1.285       .  A
C71         C379   1.469       .  S
O72         Zr75   2.447   1_545  S
O72          C74   1.289       .  A
O73        Zr102   2.416       .  S
O73          C74   1.285       .  A
C74         C336   1.477       .  S
Zr75         O76   2.435       .  S
Zr75         O77   2.435   1_565  S
Zr75         O81   2.372       .  S
Zr75         O82   2.366   1_565  S
Zr75        O105   2.373   1_565  S
Zr75        O107   2.375       .  S
O76         H119   0.990       .  S
O77         H118   0.990   1_545  S
O77         H122   0.990   1_545  S
Zr78         O79   2.436   1_545  S
Zr78         O80   2.434       .  S
Zr78         O82   2.372       .  S
Zr78         O81   2.374   1_545  S
Zr78        O106   2.377   1_545  S
Zr78        O108   2.373       .  S
O79         H120   0.990   1_565  S
O79         H123   0.990   1_565  S
O80         H113   0.990   1_545  S
O81        Zr101   2.374       .  S
O82        Zr102   2.379       .  S
O82         H109   0.966       .  S
O83         Zr95   2.452       .  S
O83          C85   1.289       .  A
O84        Zr102   2.405       .  S
O84          C85   1.283       .  A
C85         C326   1.473       .  S
O86         Zr98   2.455       .  S
O86          C88   1.290       .  A
O87        Zr101   2.408       .  S
O87          C88   1.284       .  A
C88         C366   1.489       .  S
O89         Zr98   2.448   1_545  S
O89          C91   1.289       .  A
O90        Zr102   2.418       .  S
O90          C91   1.286       .  A
C91         C319   1.486       .  S
O92         Zr95   2.445   1_565  S
O92          C94   1.289       .  A
O93        Zr101   2.411       .  S
O93          C94   1.284       .  A
C94         C359   1.473       .  S
Zr95         O96   2.436       .  S
Zr95         O97   2.435   1_545  S
Zr95        O103   2.376       .  S
Zr95        O104   2.374   1_545  S
Zr95        O107   2.369   1_545  S
Zr95        O105   2.367       .  S
O96         H116   0.990       .  S
O96         H121   0.990       .  S
O97         H117   0.990   1_565  S
Zr98         O99   2.435   1_565  S
Zr98        O100   2.434       .  S
Zr98        O104   2.369       .  S
Zr98        O103   2.372   1_565  S
Zr98        O108   2.379   1_565  S
Zr98        O106   2.373       .  S
O99         H115   0.990       .  S
O100        H114   0.990   1_565  S
O100        H124   0.990   1_565  S
Zr101       O104   2.374       .  S
Zr101       O106   2.379       .  S
Zr101       O107   2.381       .  S
Zr102       O103   2.382       .  S
Zr102       O105   2.375       .  S
Zr102       O108   2.376       .  S
O103        H111   0.966       .  S
O106        H110   0.967       .  S
O107        H112   0.967       .  S
O125       Zr137   2.434   1_655  S
O125        C127   1.287       .  A
O126       Zr163   2.414       .  S
O126        C127   1.285       .  A
C127        C306   1.476       .  S
O128       Zr140   2.454       .  S
O128        C130   1.289       .  A
O129       Zr164   2.424       .  S
O129        C130   1.286       .  A
C130        C266   1.473       .  S
O131       Zr140   2.454   1_655  S
O131        C133   1.290       .  A
O132       Zr163   2.412       .  S
O132        C133   1.285       .  A
C133        C299   1.475       .  S
O134       Zr137   2.435       .  S
O134        C136   1.287       .  A
O135       Zr164   2.422       .  S
O135        C136   1.287       .  A
C136        C256   1.481       .  S
Zr137       O138   2.433       .  S
Zr137       O139   2.433       .  S
Zr137       O143   2.369   1_455  S
Zr137       O144   2.371       .  S
Zr137       O167   2.373       .  S
Zr137       O169   2.372   1_455  S
O138        H181   0.990   1_455  S
O139        H180   0.990       .  S
O139        H184   0.990       .  S
Zr140       O141   2.436       .  S
Zr140       O142   2.435       .  S
Zr140       O144   2.373       .  S
Zr140       O143   2.371   1_455  S
Zr140       O168   2.379   1_455  S
Zr140       O170   2.373       .  S
O141        H182   0.990       .  S
O141        H185   0.990       .  S
O142        H175   0.990       .  S
O143       Zr163   2.378       .  S
O144       Zr164   2.380       .  S
O144        H171   0.966       .  S
O145       Zr157   2.439       .  S
O145        C147   1.287       .  A
O146       Zr164   2.421       .  S
O146        C147   1.286       .  A
C147        C246   1.469       .  S
O148       Zr160   2.445   1_655  S
O148        C150   1.288       .  A
O149       Zr163   2.423       .  S
O149        C150   1.285       .  A
C150        C286   1.474       .  S
O151       Zr160   2.449       .  S
O151        C153   1.290       .  A
O152       Zr164   2.403       .  S
O152        C153   1.283       .  A
C153        C236   1.478       .  S
O154       Zr157   2.451   1_655  S
O154        C156   1.290       .  A
O155       Zr163   2.417       .  S
O155        C156   1.285       .  A
C156        C276   1.480       .  S
Zr157       O158   2.437       .  S
Zr157       O159   2.434       .  S
Zr157       O165   2.375       .  S
Zr157       O166   2.371   1_455  S
Zr157       O169   2.370   1_455  S
Zr157       O167   2.377       .  S
O158        H178   0.990       .  S
O158        H183   0.990       .  S
O159        H179   0.990       .  S
Zr160       O161   2.434       .  S
Zr160       O162   2.434       .  S
Zr160       O166   2.371   1_455  S
Zr160       O165   2.370       .  S
Zr160       O170   2.371       .  S
Zr160       O168   2.371   1_455  S
O161        H177   0.990   1_455  S
O162        H176   0.990       .  S
O162        H186   0.990       .  S
Zr163       O166   2.373       .  S
Zr163       O168   2.383       .  S
Zr163       O169   2.381       .  S
Zr164       O165   2.383       .  S
Zr164       O167   2.379       .  S
Zr164       O170   2.379       .  S
O165        H173   0.966       .  S
O168        H172   0.967       .  S
O169        H174   0.967       .  S
C187        C296   1.477       .  S
C187        N188   1.359       .  A
C187        N192   1.357       .  A
N188        C189   1.361       .  A
C189        C396   1.482       .  S
C189        N190   1.358       .  A
N190        C191   1.357       .  A
C191        C349   1.473       .  S
C191        N192   1.356       .  A
C193        C309   1.467       .  S
C193        N194   1.357       .  A
C193        N198   1.358       .  A
N194        C195   1.356       .  A
C195        C409   1.473       .  S
C195        N196   1.357       .  A
N196        C197   1.359       .  A
C197        C376   1.483       .  S
C197        N198   1.358       .  A
C199        C449   1.471       .  S
C199        N200   1.357       .  A
C199        N204   1.359       .  A
N200        C201   1.356       .  A
C201        C316   1.474       .  S
C201        N202   1.358       .  A
N202        C203   1.361       .  A
C203        C289   1.484       .  S
C203        N204   1.361       .  A
C205        C389   1.473       .  S
C205        N206   1.354       .  A
C205        N210   1.357       .  A
N206        C207   1.355       .  A
C207        C259   1.472       .  S
C207        N208   1.359       .  A
N208        C209   1.362       .  A
C209        C419   1.494       .  S
C209        N210   1.360       .  A
C211        C469   1.467       .  S
C211        N212   1.355       .  A
C211        N216   1.355       .  A
N212        C213   1.356       .  A
C213        C249   1.478       .  S
C213        N214   1.359       .  A
N214        C215   1.359       .  A
C215        C356   1.475       .  S
C215        N216   1.356       .  A
C217        C459   1.472       .  S
C217        N218   1.357       .  A
C217        N222   1.359       .  A
N218        C219   1.356       .  A
C219        C239   1.466       .  S
C219        N220   1.356       .  A
N220        C221   1.357       .  A
C221        C329   1.475       .  S
C221        N222   1.360       .  A
C223        C436   1.478       .  S
C223        N224   1.360       .  A
C223        N228   1.359       .  A
N224        C225   1.358       .  A
C225        C279   1.479       .  S
C225        N226   1.357       .  A
N226        C227   1.357       .  A
C227        C369   1.469       .  S
C227        N228   1.357       .  A
C229        C339   1.478       .  S
C229        N230   1.358       .  A
C229        N234   1.360       .  A
N230        C231   1.357       .  A
C231        C429   1.479       .  S
C231        N232   1.359       .  A
N232        C233   1.359       .  A
C233        C269   1.495       .  S
C233        N234   1.360       .  A
C235        C236   1.408       .  A
C235        C240   1.398       .  A
C235        F242   1.358       .  S
C236        C237   1.411       .  A
C237        C238   1.396       .  A
C237        F244   1.358       .  S
C238        C239   1.402       .  A
C238        F243   1.358       .  S
C239        C240   1.402       .  A
C240        F241   1.358       .  S
C245        C246   1.403       .  A
C245        C250   1.396       .  A
C245        F252   1.359       .  S
C246        C247   1.404       .  A
C247        C248   1.399       .  A
C247        F254   1.358       .  S
C248        C249   1.408       .  A
C248        F253   1.358       .  S
C249        C250   1.410       .  A
C250        F251   1.358       .  S
C255        C256   1.411       .  A
C255        C260   1.401       .  A
C255        F262   1.358       .  S
C256        C257   1.408       .  A
C257        C258   1.396       .  A
C257        F264   1.358       .  S
C258        C259   1.404       .  A
C258        F263   1.358       .  S
C259        C260   1.403       .  A
C260        F261   1.358       .  S
C265        C266   1.402       .  A
C265        C270   1.401       .  A
C265        F272   1.357       .  S
C266        C267   1.401       .  A
C267        C268   1.400       .  A
C267        F274   1.358       .  S
C268        C269   1.414       .  A
C268        F273   1.358       .  S
C269        C270   1.414       .  A
C270        F271   1.358       .  S
C275        C276   1.408       .  A
C275        C280   1.399       .  A
C275        F282   1.358       .  S
C276        C277   1.407       .  A
C277        C278   1.401       .  A
C277        F284   1.358       .  S
C278        C279   1.407       .  A
C278        F283   1.358       .  S
C279        C280   1.407       .  A
C280        F281   1.358       .  S
C285        C286   1.403       .  A
C285        C290   1.398       .  A
C285        F292   1.358       .  S
C286        C287   1.405       .  A
C287        C288   1.403       .  A
C287        F294   1.358       .  S
C288        C289   1.411       .  A
C288        F293   1.358       .  S
C289        C290   1.408       .  A
C290        F291   1.358       .  S
C295        C296   1.406       .  A
C295        C300   1.396       .  A
C295        F302   1.358       .  S
C296        C297   1.407       .  A
C297        C298   1.402       .  A
C297        F304   1.358       .  S
C298        C299   1.406       .  A
C298        F303   1.358       .  S
C299        C300   1.405       .  A
C300        F301   1.359       .  S
C305        C306   1.408       .  A
C305        C310   1.396       .  A
C305        F312   1.358       .  S
C306        C307   1.409       .  A
C307        C308   1.398       .  A
C307        F314   1.358       .  S
C308        C309   1.402       .  A
C308        F313   1.358       .  S
C309        C310   1.404       .  A
C310        F311   1.358       .  S
C315        C316   1.404       .  A
C315        C320   1.401       .  A
C315        F322   1.358       .  S
C316        C317   1.403       .  A
C317        C318   1.398       .  A
C317        F324   1.358       .  S
C318        C319   1.411       .  A
C318        F323   1.358       .  S
C319        C320   1.411       .  A
C320        F321   1.358       .  S
C325        C326   1.405       .  A
C325        C330   1.399       .  A
C325        F332   1.358       .  S
C326        C327   1.407       .  A
C327        C328   1.396       .  A
C327        F334   1.359       .  S
C328        C329   1.406       .  A
C328        F333   1.358       .  S
C329        C330   1.407       .  A
C330        F331   1.358       .  S
C335        C336   1.407       .  A
C335        C340   1.397       .  A
C335        F342   1.358       .  S
C336        C337   1.406       .  A
C337        C338   1.400       .  A
C337        F344   1.358       .  S
C338        C339   1.407       .  A
C338        F343   1.358       .  S
C339        C340   1.407       .  A
C340        F341   1.358       .  S
C345        C346   1.408       .  A
C345        C350   1.396       .  A
C345        F352   1.359       .  S
C346        C347   1.405       .  A
C347        C348   1.399       .  A
C347        F354   1.358       .  S
C348        C349   1.407       .  A
C348        F353   1.358       .  S
C349        C350   1.405       .  A
C350        F351   1.358       .  S
C355        C356   1.406       .  A
C355        C360   1.398       .  A
C355        F362   1.358       .  S
C356        C357   1.408       .  A
C357        C358   1.397       .  A
C357        F364   1.358       .  S
C358        C359   1.406       .  A
C358        F363   1.359       .  S
C359        C360   1.405       .  A
C360        F361   1.358       .  S
C365        C366   1.414       .  A
C365        C370   1.396       .  A
C365        F372   1.358       .  S
C366        C367   1.413       .  A
C367        C368   1.401       .  A
C367        F374   1.358       .  S
C368        C369   1.402       .  A
C368        F373   1.358       .  S
C369        C370   1.400       .  A
C370        F371   1.358       .  S
C375        C376   1.411       .  A
C375        C380   1.401       .  A
C375        F382   1.358       .  S
C376        C377   1.409       .  A
C377        C378   1.394       .  A
C377        F384   1.357       .  S
C378        C379   1.402       .  A
C378        F383   1.359       .  S
C379        C380   1.404       .  A
C380        F381   1.358       .  S
C385        C386   1.407       .  A
C385        C390   1.398       .  A
C385        F392   1.358       .  S
C386        C387   1.407       .  A
C387        C388   1.395       .  A
C387        F394   1.359       .  S
C388        C389   1.406       .  A
C388        F393   1.358       .  S
C389        C390   1.405       .  A
C390        F391   1.358       .  S
C395        C396   1.410       .  A
C395        C400   1.399       .  A
C395        F402   1.358       .  S
C396        C397   1.409       .  A
C397        C398   1.399       .  A
C397        F404   1.358       .  S
C398        C399   1.404       .  A
C398        F403   1.358       .  S
C399        C400   1.402       .  A
C400        F401   1.358       .  S
C405        C406   1.408       .  A
C405        C410   1.399       .  A
C405        F412   1.358       .  S
C406        C407   1.409       .  A
C407        C408   1.398       .  A
C407        F414   1.358       .  S
C408        C409   1.404       .  A
C408        F413   1.358       .  S
C409        C410   1.405       .  A
C410        F411   1.358       .  S
C415        C416   1.400       .  A
C415        C420   1.399       .  A
C415        F422   1.358       .  S
C416        C417   1.398       .  A
C417        C418   1.398       .  A
C417        F424   1.358       .  S
C418        C419   1.416       .  A
C418        F423   1.358       .  S
C419        C420   1.415       .  A
C420        F421   1.357       .  S
C425        C426   1.406       .  A
C425        C430   1.403       .  A
C425        F432   1.358       .  S
C426        C427   1.405       .  A
C427        C428   1.395       .  A
C427        F434   1.358       .  S
C428        C429   1.406       .  A
C428        F433   1.358       .  S
C429        C430   1.409       .  A
C430        F431   1.358       .  S
C435        C436   1.408       .  A
C435        C440   1.397       .  A
C435        F442   1.358       .  S
C436        C437   1.407       .  A
C437        C438   1.400       .  A
C437        F444   1.358       .  S
C438        C439   1.407       .  A
C438        F443   1.358       .  S
C439        C440   1.404       .  A
C440        F441   1.358       .  S
C445        C446   1.411       .  A
C445        C450   1.404       .  A
C445        F452   1.358       .  S
C446        C447   1.410       .  A
C447        C448   1.395       .  A
C447        F454   1.358       .  S
C448        C449   1.402       .  A
C448        F453   1.358       .  S
C449        C450   1.404       .  A
C450        F451   1.358       .  S
C455        C456   1.408       .  A
C455        C460   1.400       .  A
C455        F462   1.357       .  S
C456        C457   1.409       .  A
C457        C458   1.398       .  A
C457        F464   1.358       .  S
C458        C459   1.404       .  A
C458        F463   1.358       .  S
C459        C460   1.403       .  A
C460        F461   1.358       .  S
C465        C466   1.406       .  A
C465        C470   1.395       .  A
C465        F472   1.358       .  S
C466        C467   1.408       .  A
C467        C468   1.396       .  A
C467        F474   1.358       .  S
C468        C469   1.403       .  A
C468        F473   1.358       .  S
C469        C470   1.404       .  A
C470        F471   1.358       .  S
