geometry optimzed in LAMMPS
_audit_creation_date              2020-12-01 
_audit_creation_method            'lammps2cif' 
_symmetry_space_group_name_H-M    'P1' 
_symmetry_Int_Tables_number       1 
_symmetry_cell_setting            triclinic 
loop_ 
_symmetry_equiv_pos_as_xyz 
  x,y,z 
_cell_length_a                    33.56720952 
_cell_length_b                    33.46586326649526 
_cell_length_c                    36.9709529414735 
_cell_angle_alpha                 89.96508052596594 
_cell_angle_beta                  90.64966650297234 
_cell_angle_gamma                 121.13381437088951 
loop_ 
_atom_site_label 
_atom_site_type_symbol 
_atom_site_fract_x 
_atom_site_fract_y 
_atom_site_fract_z 
_atom_site_charge 
C1          C  0.18074399  0.31612607  0.73961108     0.03200
C2          C  0.17202020  0.29491927  0.77380271    -0.12900
C3          C  0.14704116  0.24614855  0.77680469     0.00700
C4          C  0.13101762  0.21870132  0.74535027    -0.11400
C5          C  0.14105380  0.23928160  0.71097634     0.03200
C6          C  0.16474950  0.28803328  0.70830899    -0.10900
H7          H  0.18518124  0.31630850  0.79802797     0.08800
H8          H  0.11302747  0.18102170  0.74759610     0.06400
H9          H  0.17386373  0.30415829  0.68188746     0.06200
C10         C  0.27947763  0.81884893  0.75674554     0.03200
C11         C  0.27301337  0.83660105  0.78929111    -0.12900
C12         C  0.25133330  0.86292859  0.78911135     0.00700
C13         C  0.23595527  0.87127549  0.75623992    -0.11400
C14         C  0.24055604  0.85247144  0.72378888     0.03200
C15         C  0.26344526  0.82738107  0.72394844    -0.10900
H16         H  0.28409269  0.82934754  0.81483146     0.08800
H17         H  0.21720378  0.88968199  0.75621376     0.06400
H18         H  0.26561218  0.81162441  0.69902169     0.06200
C19         C  0.39560816  0.66469367  0.72854102     0.03200
C20         C  0.44346365  0.68147640  0.72680376    -0.12900
C21         C  0.46010572  0.65060641  0.72800971     0.00700
C22         C  0.42796154  0.60243120  0.73024061    -0.11400
C23         C  0.38001301  0.58512937  0.73251589     0.03200
C24         C  0.36410585  0.61651418  0.73144118    -0.10900
H25         H  0.46777233  0.71880461  0.72611355     0.08800
H26         H  0.44024439  0.57820387  0.73024928     0.06400
H27         H  0.32723120  0.60358725  0.73359414     0.06200
C28         C  0.72581019  0.72426265  0.75962184     0.03200
C29         C  0.74739053  0.72737088  0.79334701    -0.12900
C30         C  0.79587011  0.74818395  0.79596661     0.00700
C31         C  0.82273281  0.76660383  0.76496203    -0.11400
C32         C  0.80226483  0.76584979  0.73157208     0.03200
C33         C  0.75369270  0.74335959  0.72875934    -0.10900
H34         H  0.72681805  0.71479209  0.81763708     0.08800
H35         H  0.86031452  0.78394543  0.76726997     0.06400
H36         H  0.73784999  0.74225000  0.70280961     0.06200
Zn37       Zn  0.08422491  0.97950955  0.05217915     1.49700
Zn38       Zn  0.02709785  0.98713603  0.98758291     1.49400
Zn39       Zn  0.13772724  0.02848226  0.98006549     1.49100
Zn40       Zn  0.06389520  0.91652739  0.98242551     1.49500
O41         O  0.07854114  0.97801451  0.00018726    -1.84000
O42         O  0.04118725  0.99580713  0.07643723    -0.74600
O43         O  0.04831428  0.03849991  0.95116408    -0.74500
O44         O  0.18741016  0.06609974  0.01925454    -0.74000
O45         O  0.00193395  0.00317821  0.03086436    -0.74700
O46         O  0.14821450  0.02608460  0.06739894    -0.74300
O47         O  0.12521750  0.07085946  0.94908770    -0.74800
O48         O  0.11370024  0.92394517  0.94838147    -0.74200
O49         O  0.97370465  0.92957937  0.96481786    -0.75000
O50         O  0.16471174  0.00036951  0.94678455    -0.74400
O51         O  0.00143062  0.88278278  0.95661370    -0.74800
O52         O  0.06103279  0.87467847  0.02301526    -0.74800
O53         O  0.07452329  0.91958372  0.07136068    -0.74500
C54         C  0.01079476  0.00460140  0.06455361     0.77200
C55         C  0.08786156  0.06906819  0.93890488     0.77700
C56         C  0.18540489  0.05778723  0.05306904     0.76700
C57         C  0.15142113  0.95872811  0.93691333     0.77100
C58         C  0.96901679  0.89170493  0.95287674     0.78200
C59         C  0.06658110  0.88164135  0.05699226     0.77300
Zn60       Zn  0.06724046  0.94467449  0.55253929     1.49700
Zn61       Zn  0.07669608  0.00992135  0.48782816     1.49400
Zn62       Zn  0.11361657  0.93729343  0.48124950     1.49100
Zn63       Zn  0.00327475  0.89879548  0.48522648     1.49500
O64         O  0.06545726  0.94792414  0.50100323    -1.84000
O65         O  0.09210579  0.00695209  0.57491120    -0.74600
O66         O  0.13052576  0.04017876  0.45323986    -0.74500
O67         O  0.14793549  0.92332488  0.52079204    -0.74000
O68         O  0.09244107  0.05316978  0.53173300    -0.74700
O69         O  0.10694531  0.92006914  0.56857201    -0.74300
O70         O  0.15914866  0.99317152  0.45170578    -0.74800
O71         O  0.00769434  0.85209134  0.45438475    -0.74200
O72         O  0.02102041  0.00386643  0.46094115    -0.75000
O73         O  0.08351577  0.88088150  0.44758132    -0.74400
O74         O  0.97441937  0.92702492  0.45489161    -0.74800
O75         O  0.95849641  0.86515384  0.52643277    -0.74800
O76         O  0.00448023  0.90380252  0.57298622    -0.74500
C77         C  0.09888250  0.04620123  0.56463674     0.77200
C78         C  0.16011735  0.03022094  0.44184351     0.77700
C79         C  0.13818243  0.91483627  0.55420732     0.76700
C80         C  0.04117028  0.84998466  0.44059265     0.77100
C81         C  0.98406667  0.96845136  0.44839728     0.78200
C82         C  0.96482075  0.87349946  0.56025360     0.77300
C83         C  0.42574961  0.18828897  0.25765633     0.03200
C84         C  0.40017862  0.17493081  0.22487242    -0.12900
C85         C  0.35147940  0.14976720  0.22506015     0.00700
C86         C  0.32818409  0.13991796  0.25805466    -0.11400
C87         C  0.35283031  0.15292378  0.29097495     0.03200
C88         C  0.40168248  0.17713849  0.29062683    -0.10900
H89         H  0.41793471  0.18215034  0.19926489     0.08800
H90         H  0.29046540  0.11922856  0.25808152     0.06400
H91         H  0.42078254  0.18570533  0.31605135     0.06200
C92         C  0.84888086  0.08608940  0.25535140     0.03200
C93         C  0.87156395  0.07895771  0.22643284    -0.12900
C94         C  0.89826187  0.05818120  0.23249953     0.00700
C95         C  0.90055747  0.04319046  0.26743705    -0.11400
C96         C  0.87943567  0.05137817  0.29649523     0.03200
C97         C  0.85364743  0.07281399  0.29050449    -0.10900
H98         H  0.86945889  0.09071289  0.19956476     0.08800
H99         H  0.92061871  0.02668464  0.27250868     0.06400
H100        H  0.83842538  0.08023980  0.31330467     0.06200
C101        C  0.76225148  0.26562252  0.23406051     0.03200
C102        C  0.71407948  0.24723605  0.23160516    -0.12900
C103        C  0.69551453  0.27608288  0.23605118     0.00700
C104        C  0.72588716  0.32403121  0.24251381    -0.11400
C105        C  0.77419598  0.34307858  0.24503329     0.03200
C106        C  0.79198655  0.31349573  0.24100443    -0.10900
H107        H  0.69093904  0.21023374  0.22665442     0.08800
H108        H  0.71195000  0.34676643  0.24465130     0.06400
H109        H  0.82905160  0.32760049  0.24409462     0.06200
C110        C  0.96157838  0.61561871  0.23886858     0.03200
C111        C  0.97743978  0.64136218  0.27128933    -0.12900
C112        C  0.00525904  0.69026084  0.27048622     0.00700
C113        C  0.01572490  0.71318943  0.23711768    -0.11400
C114        C  0.99924847  0.68804147  0.20451452     0.03200
C115        C  0.97255702  0.63917574  0.20564442    -0.10900
H116        H  0.96904495  0.62337542  0.29698774     0.08800
H117        H  0.03516841  0.75101165  0.23676789     0.06400
H118        H  0.95989964  0.61934808  0.18066310     0.06200
C119        C  0.80619129  0.39402043  0.25071762    -0.05100
C120        C  0.79469897  0.41935488  0.27438586    -0.05100
C121        C  0.82390784  0.46771294  0.27820600    -0.23200
C122        C  0.86502904  0.49160174  0.25830669     0.19000
C123        C  0.87722974  0.46627455  0.23495053     0.16200
C124        C  0.84795093  0.41783545  0.23145140    -0.18300
C125        C  0.91795352  0.48991975  0.21467494    -0.20100
C126        C  0.94570512  0.53841426  0.21664360    -0.12600
C127        C  0.93355389  0.56406871  0.23921615     0.04000
C128        C  0.89357733  0.54042189  0.26057960    -0.24800
H129        H  0.76306169  0.40174002  0.28995119     0.09100
H130        H  0.81403502  0.48647412  0.29633708     0.12700
H131        H  0.85693048  0.39891637  0.21269527     0.12600
H132        H  0.92788206  0.47099423  0.19676797     0.12400
H133        H  0.97665203  0.55607316  0.20027678     0.12900
H134        H  0.88389446  0.56013067  0.27785904     0.14900
C135        C  0.82315574  0.11059320  0.24977661    -0.05100
C136        C  0.78026222  0.09444529  0.26674653    -0.05100
C137        C  0.75838438  0.12029116  0.26517048    -0.23200
C138        C  0.77930868  0.16296819  0.24687548     0.19000
C139        C  0.82165727  0.17874613  0.22864167     0.16200
C140        C  0.84307995  0.15222009  0.22990107    -0.18300
C141        C  0.84275917  0.22166178  0.21065759    -0.20100
C142        C  0.82290605  0.24943192  0.21176653    -0.12600
C143        C  0.78149591  0.23466813  0.23069835     0.04000
C144        C  0.75942463  0.19086726  0.24762684    -0.24800
H145        H  0.76410529  0.06215768  0.28184097     0.09100
H146        H  0.72577747  0.10753930  0.27908669     0.12700
H147        H  0.87640156  0.16517884  0.21704084     0.12600
H148        H  0.87508607  0.23418433  0.19637960     0.12400
H149        H  0.84012343  0.28268966  0.19799544     0.12900
H150        H  0.72780367  0.17931799  0.26268916     0.14900
C151        C  0.47720687  0.21054788  0.25758119    -0.05100
C152        C  0.50517776  0.24604118  0.28261030    -0.05100
C153        C  0.55345722  0.26612406  0.28317856    -0.23200
C154        C  0.57469448  0.25121664  0.25862000     0.19000
C155        C  0.54701096  0.21572571  0.23323377     0.16200
C156        C  0.49855409  0.19551099  0.23298822    -0.18300
C157        C  0.56823502  0.20087769  0.20861400    -0.20100
C158        C  0.61648708  0.22091003  0.20921291    -0.12600
C159        C  0.64439039  0.25594602  0.23459402     0.04000
C160        C  0.62310058  0.27098976  0.25919596    -0.24800
H161        H  0.48971249  0.25855165  0.30162429     0.09100
H162        H  0.57418038  0.29337186  0.30278396     0.12700
H163        H  0.47744375  0.16747767  0.21405132     0.12600
H164        H  0.54753815  0.17383440  0.18885889     0.12400
H165        H  0.63202260  0.20915486  0.18962174     0.12900
H166        H  0.64408543  0.29745806  0.27926465     0.14900
C167        C  0.02995602  0.81143400  0.41499423    -0.05100
C168        C  0.98424198  0.77280103  0.41276310    -0.05100
C169        C  0.97143937  0.73886438  0.38593345    -0.23200
C170        C  0.00394392  0.74319833  0.36045285     0.19000
C171        C  0.05051236  0.78091873  0.36316978     0.16200
C172        C  0.06342193  0.81444545  0.39077176    -0.18300
C173        C  0.08273708  0.78568105  0.33715181    -0.20100
C174        C  0.06834361  0.75488914  0.30772910    -0.12600
C175        C  0.02175859  0.71831989  0.30419939     0.04000
C176        C  0.99004609  0.71174688  0.33130315    -0.24800
H177        H  0.95790332  0.76933547  0.43131056     0.09100
H178        H  0.93568281  0.71010084  0.38436182     0.12700
H179        H  0.09876226  0.84407540  0.39213865     0.12600
H180        H  0.11859808  0.81420341  0.33880791     0.12400
H181        H  0.09334885  0.76026576  0.28715638     0.12900
H182        H  0.95396511  0.68390001  0.32852088     0.14900
C183        C  0.19520865  0.06145935  0.41536723    -0.05100
C184        C  0.18595287  0.08949110  0.39263788    -0.05100
C185        C  0.21661230  0.11557211  0.36508822    -0.23200
C186        C  0.25737010  0.11450216  0.36002925     0.19000
C187        C  0.26805257  0.08804802  0.38371225     0.16200
C188        C  0.23677522  0.06145866  0.41106366    -0.18300
C189        C  0.30916360  0.08752585  0.37892481    -0.20100
C190        C  0.33828978  0.11114013  0.34992383    -0.12600
C191        C  0.32673149  0.13552009  0.32514618     0.04000
C192        C  0.28676357  0.13806871  0.33094278    -0.24800
H193        H  0.15409934  0.08995966  0.39533087     0.09100
H194        H  0.20795782  0.13579598  0.34728179     0.12700
H195        H  0.24441315  0.04022750  0.42861123     0.12600
H196        H  0.31805842  0.06767476  0.39693762     0.12400
H197        H  0.36862127  0.10829705  0.34578151     0.12900
H198        H  0.27777498  0.15707360  0.31206157     0.14900
C199        C  0.95245928  0.97520915  0.42444254    -0.05100
C200        C  0.91752103  0.93716881  0.40447511    -0.05100
C201        C  0.89148002  0.94380406  0.37815964    -0.23200
C202        C  0.89985959  0.98861254  0.37133895     0.19000
C203        C  0.93279320  0.02678102  0.39275171     0.16200
C204        C  0.95887038  0.01982618  0.41926243    -0.18300
C205        C  0.94095119  0.07162513  0.38577541    -0.20100
C206        C  0.91950706  0.07905459  0.35604236    -0.12600
C207        C  0.88961359  0.04174422  0.33315909     0.04000
C208        C  0.87823819  0.99632217  0.34184022    -0.24800
H209        H  0.91155524  0.90237875  0.40807858     0.09100
H210        H  0.86610989  0.91417091  0.36216051     0.12700
H211        H  0.98536345  0.04937587  0.43472243     0.12600
H212        H  0.96579056  0.10125094  0.40203409     0.12400
H213        H  0.92895123  0.11437834  0.34931921     0.12900
H214        H  0.85538969  0.96762788  0.32392250     0.14900
C215        C  0.06481136  0.84581045  0.08080438    -0.05100
C216        C  0.10150305  0.85834040  0.10547324    -0.05100
C217        C  0.09801727  0.82713640  0.13198052    -0.23200
C218        C  0.05700294  0.78357381  0.13494310     0.19000
C219        C  0.02037279  0.77003640  0.10945767     0.16200
C220        C  0.02498009  0.80098494  0.08187060    -0.18300
C221        C  0.97882107  0.72703766  0.11339031    -0.20100
C222        C  0.97257167  0.69916959  0.14352332    -0.12600
C223        C  0.00812386  0.71342899  0.16979532     0.04000
C224        C  0.05102270  0.75471543  0.16432606    -0.24800
H225        H  0.13245251  0.89286711  0.10474388     0.09100
H226        H  0.12640303  0.83797777  0.15125066     0.12700
H227        H  0.99649065  0.79159770  0.06296955     0.12600
H228        H  0.95037612  0.71605273  0.09416119     0.12400
H229        H  0.93909012  0.66761587  0.14714009     0.12900
H230        H  0.07905821  0.76557898  0.18395743     0.14900
C231        C  0.92627999  0.05427349  0.20346347    -0.05100
C232        C  0.97124700  0.06319750  0.21163188    -0.05100
C233        C  0.99695696  0.05627776  0.18578590    -0.23200
C234        C  0.97852240  0.04085414  0.15101766     0.19000
C235        C  0.93425974  0.03368141  0.14181690     0.16200
C236        C  0.90832131  0.04040714  0.16813405    -0.18300
C237        C  0.91647932  0.01908332  0.10664443    -0.20100
C238        C  0.94186691  0.01070144  0.08116173    -0.12600
C239        C  0.98516533  0.01625669  0.09056500     0.04000
C240        C  0.00348858  0.03191473  0.12548992    -0.24800
H241        H  0.98657933  0.07533497  0.23827139     0.09100
H242        H  0.03110273  0.06258457  0.19311740     0.12700
H243        H  0.87378005  0.03348159  0.16145855     0.12600
H244        H  0.88276104  0.01363134  0.09897349     0.12400
H245        H  0.92708503  0.99873449  0.05435310     0.12900
H246        H  0.03712802  0.03690784  0.13290982     0.14900
C247        C  0.22642909  0.08298093  0.07723466    -0.05100
C248        C  0.25832591  0.13115524  0.07470222    -0.05100
C249        C  0.29228097  0.15439547  0.10198199    -0.23200
C250        C  0.29454187  0.12960759  0.13195866     0.19000
C251        C  0.26391091  0.08070430  0.13326476     0.16200
C252        C  0.23070206  0.05794361  0.10591228    -0.18300
C253        C  0.26525299  0.05525109  0.16276139    -0.20100
C254        C  0.29500904  0.07821265  0.19184481    -0.12600
C255        C  0.32430102  0.12692990  0.19186172     0.04000
C256        C  0.32523909  0.15260100  0.16133837    -0.24800
H257        H  0.25559954  0.15101298  0.05269576     0.09100
H258        H  0.31559672  0.19183909  0.10029343     0.12700
H259        H  0.20664362  0.02056336  0.10772133     0.12600
H260        H  0.24216867  0.01770433  0.16388808     0.12400
H261        H  0.29451119  0.05795102  0.21489954     0.12900
H262        H  0.34802118  0.19022919  0.16126985     0.14900
C263        C  0.83266359  0.79285302  0.70113258    -0.05100
C264        C  0.87085587  0.83787476  0.70809106    -0.05100
C265        C  0.90266428  0.86293787  0.68120483    -0.23200
C266        C  0.89683568  0.84360149  0.64666508     0.19000
C267        C  0.85751480  0.79930863  0.63851821     0.16200
C268        C  0.82528984  0.77412548  0.66589525    -0.18300
C269        C  0.85210241  0.78077663  0.60345429    -0.20100
C270        C  0.88619073  0.80525612  0.57727728    -0.12600
C271        C  0.92619453  0.84841689  0.58592506     0.04000
C272        C  0.93056050  0.86766443  0.62049073    -0.24800
H273        H  0.87649014  0.85356123  0.73470996     0.09100
H274        H  0.93234271  0.89713232  0.68764996     0.12700
H275        H  0.79575445  0.73955447  0.66023689     0.12600
H276        H  0.82208246  0.74704384  0.59651920     0.12400
H277        H  0.88195276  0.78987073  0.55069976     0.12900
H278        H  0.96083374  0.90131780  0.62735608     0.14900
C279        C  0.82047492  0.75687091  0.83111838    -0.05100
C280        C  0.85519185  0.74561776  0.83526019    -0.05100
C281        C  0.88798147  0.76525366  0.86332593    -0.23200
C282        C  0.88710816  0.79725964  0.88722103     0.19000
C283        C  0.85039790  0.80631919  0.88478497     0.16200
C284        C  0.81667465  0.78526235  0.85711727    -0.18300
C285        C  0.85021097  0.83915313  0.90818377    -0.20100
C286        C  0.88781693  0.86535453  0.93175594    -0.12600
C287        C  0.92588813  0.85864381  0.93275490     0.04000
C288        C  0.92415495  0.82287106  0.91161722    -0.24800
H289        H  0.85862130  0.72387850  0.81534768     0.09100
H290        H  0.91569902  0.75771292  0.86490700     0.12700
H291        H  0.79036177  0.79458963  0.85369623     0.12600
H292        H  0.82221286  0.84630455  0.90693487     0.12400
H293        H  0.88790100  0.89216635  0.94820375     0.12900
H294        H  0.95312970  0.81714425  0.91222591     0.14900
C295        C  0.67462193  0.70375351  0.75696375    -0.05100
C296        C  0.64408350  0.66386416  0.77691861    -0.05100
C297        C  0.59600604  0.64512706  0.77485374    -0.23200
C298        C  0.57757045  0.66584575  0.75268255     0.19000
C299        C  0.60786555  0.70564916  0.73226479     0.16200
C300        C  0.65604633  0.72443877  0.73467640    -0.14100
C301        C  0.58951945  0.72627661  0.70995242    -0.20100
C302        C  0.54155170  0.70790873  0.70809933    -0.12600
C303        C  0.51098295  0.66875327  0.72872222     0.04000
C304        C  0.52943185  0.64777557  0.75089484    -0.24800
H305        H  0.65737860  0.64691580  0.79395239     0.09100
H306        H  0.57326389  0.61445472  0.79059651     0.12700
H307        H  0.67909106  0.75574111  0.71967665     0.12600
H308        H  0.61227691  0.75666808  0.69394670     0.12400
H309        H  0.52835855  0.72432832  0.69037436     0.12900
H310        H  0.50651180  0.61807482  0.76746672     0.14900
C311        C  0.16284459  0.89867726  0.57779099    -0.05100
C312        C  0.20937419  0.91183562  0.57207677    -0.05100
C313        C  0.23375568  0.90199074  0.59822914    -0.23200
C314        C  0.21182868  0.87892963  0.63035251     0.19000
C315        C  0.16416802  0.86320748  0.63493089     0.16200
C316        C  0.14011514  0.87276407  0.60862992    -0.18300
C317        C  0.14163462  0.84022758  0.66663074    -0.20100
C318        C  0.16668951  0.83542098  0.69469715    -0.12600
C319        C  0.21456981  0.85302919  0.69149564     0.04000
C320        C  0.23684999  0.87320271  0.65871658    -0.24800
H321        H  0.22744897  0.93160641  0.54833483     0.09100
H322        H  0.27012408  0.91397818  0.59399049     0.12700
H323        H  0.10392835  0.86167299  0.61296937     0.12600
H324        H  0.10500628  0.82757585  0.67029547     0.12400
H325        H  0.14889605  0.81899482  0.71953408     0.12900
H326        H  0.27377409  0.88655587  0.65612781     0.14900
C327        C  0.23795595  0.87593970  0.82312177    -0.05100
C328        C  0.20902141  0.84086729  0.84744702    -0.05100
C329        C  0.18830174  0.85074327  0.87586145    -0.23200
C330        C  0.19646117  0.89597766  0.88051971     0.19000
C331        C  0.22768197  0.93214830  0.85744583     0.16200
C332        C  0.24810908  0.92185116  0.82875915    -0.18300
C333        C  0.23638386  0.97752829  0.86259889    -0.20100
C334        C  0.21281443  0.98656166  0.88931665    -0.12600
C335        C  0.17981860  0.95029810  0.91110397     0.04000
C336        C  0.17265881  0.90522970  0.90703565    -0.24800
H337        H  0.20038974  0.80521306  0.84323897     0.09100
H338        H  0.16468566  0.82267346  0.89344079     0.12700
H339        H  0.27036617  0.94899138  0.80995362     0.12600
H340        H  0.26054174  0.00578544  0.84540080     0.12400
H341        H  0.21923458  0.02163792  0.89207178     0.12900
H342        H  0.14785364  0.87708022  0.92402970     0.14900
C343        C  0.29885453  0.78778001  0.75725673    -0.05100
C344        C  0.28439631  0.75269766  0.78353233    -0.05100
C345        C  0.30049442  0.72169052  0.78309999    -0.23200
C346        C  0.33145604  0.72523463  0.75642334     0.19000
C347        C  0.34680630  0.76076200  0.73014900     0.16200
C348        C  0.33031097  0.79169411  0.73066883    -0.18300
C349        C  0.37826569  0.76460448  0.70374486    -0.20100
C350        C  0.39427026  0.73346548  0.70332882    -0.12600
C351        C  0.37870082  0.69769740  0.72904044     0.04000
C352        C  0.34725719  0.69379841  0.75556117    -0.24800
H353        H  0.25963877  0.74846395  0.80394569     0.09100
H354        H  0.28839596  0.69467904  0.80344443     0.12700
H355        H  0.34198083  0.81885999  0.71046618     0.12600
H356        H  0.39045918  0.79164592  0.68342421     0.12400
H357        H  0.41841750  0.73691534  0.68262813     0.12900
H358        H  0.33561721  0.66666590  0.77579887     0.14900
C359        C  0.13247948  0.20983702  0.67849038    -0.05100
C360        C  0.11354186  0.21592764  0.64631827    -0.05100
C361        C  0.10498481  0.18667691  0.61635912    -0.23200
C362        C  0.11542436  0.15108309  0.61818139     0.19000
C363        C  0.13566957  0.14593743  0.65025240     0.16200
C364        C  0.14431024  0.17535701  0.67982230    -0.18300
C365        C  0.14628260  0.11081366  0.65273066    -0.20100
C366        C  0.13546099  0.07974433  0.62420191    -0.12600
C367        C  0.11417493  0.08327823  0.59237964     0.04000
C368        C  0.10513244  0.11982909  0.58908767    -0.24800
H369        H  0.10456477  0.24265111  0.64463097     0.09100
H370        H  0.08963626  0.19143681  0.59203670     0.12700
H371        H  0.16026490  0.17128767  0.70411768     0.12600
H372        H  0.16204823  0.10668435  0.67709110     0.12400
H373        H  0.14322803  0.05227253  0.62732236     0.12900
H374        H  0.08856932  0.12276326  0.56472924     0.14900
C375        C  0.09009076  0.10185858  0.91102024    -0.05100
C376        C  0.04986856  0.09152353  0.89110711    -0.05100
C377        C  0.05245452  0.11950594  0.86212202    -0.23200
C378        C  0.09526137  0.15854778  0.85269986     0.19000
C379        C  0.13556968  0.17046226  0.87350109     0.16200
C380        C  0.13276585  0.14197100  0.90242831    -0.18300
C381        C  0.17828642  0.20987364  0.86429732    -0.20100
C382        C  0.18141924  0.23610232  0.83387140    -0.12600
C383        C  0.14197769  0.22320231  0.81209211     0.04000
C384        C  0.09874375  0.18493563  0.82211333    -0.24800
H385        H  0.01656646  0.06080181  0.89712290     0.09100
H386        H  0.02118069  0.11000992  0.84658872     0.12700
H387        H  0.16394823  0.15049201  0.91773835     0.12600
H388        H  0.20949144  0.21964100  0.88001688     0.12400
H389        H  0.21512695  0.26520446  0.82635559     0.12900
H390        H  0.06817662  0.17495387  0.80543468     0.14900
C391        C  0.34692062  0.53456833  0.73797432    -0.05100
C392        C  0.35819354  0.50953123  0.76234734    -0.05100
C393        C  0.32714807  0.46217152  0.76832582    -0.23200
C394        C  0.28422915  0.43889397  0.74999221     0.19000
C395        C  0.27236647  0.46359535  0.72540812     0.16200
C396        C  0.30373945  0.51131208  0.71961225    -0.18300
C397        C  0.22954982  0.43997804  0.70679592    -0.20100
C398        C  0.19918947  0.39216605  0.71201902    -0.12600
C399        C  0.21094190  0.36735350  0.73619457     0.04000
C400        C  0.25334777  0.39112479  0.75542311    -0.24800
H401        H  0.39086520  0.52681940  0.77728101     0.09100
H402        H  0.33673297  0.44375148  0.78728639     0.12700
H403        H  0.29486743  0.53016816  0.70050060     0.12600
H404        H  0.21982241  0.45832502  0.68788529     0.12400
H405        H  0.16658211  0.37441165  0.69700798     0.12900
H406        H  0.26304343  0.37207293  0.77365674     0.14900
loop_ 
_geom_bond_atom_site_label_1 
_geom_bond_atom_site_label_2 
_geom_bond_distance 
_geom_bond_site_symmetry_2 
_ccdc_geom_bond_type 
C1            C2   1.407       .  A
C1            C6   1.406       .  A
C1          C399   1.479       .  S
C2            C3   1.402       .  A
C2            H7   1.084       .  S
C3            C4   1.401       .  A
C3          C383   1.480       .  S
C4            C5   1.404       .  A
C4            H8   1.084       .  S
C5            C6   1.401       .  A
C5          C359   1.482       .  S
C6            H9   1.084       .  S
C10          C11   1.410       .  A
C10          C15   1.409       .  A
C10         C343   1.484       .  S
C11          C12   1.403       .  A
C11          H16   1.083       .  S
C12          C13   1.399       .  A
C12         C327   1.479       .  S
C13          C14   1.402       .  A
C13          H17   1.085       .  S
C14          C15   1.401       .  A
C14         C319   1.476       .  S
C15          H18   1.084       .  S
C19          C20   1.403       .  A
C19          C24   1.403       .  A
C19         C351   1.480       .  S
C20          C21   1.406       .  A
C20          H25   1.083       .  S
C21          C22   1.405       .  A
C21         C303   1.487       .  S
C22          C23   1.404       .  A
C22          H26   1.083       .  S
C23          C24   1.403       .  A
C23         C391   1.483       .  S
C24          H27   1.084       .  S
C28          C29   1.411       .  A
C28          C33   1.411       .  A
C28         C295   1.487       .  S
C29          C30   1.403       .  A
C29          H34   1.083       .  S
C30          C31   1.398       .  A
C30         C279   1.478       .  S
C31          C32   1.400       .  A
C31          H35   1.084       .  S
C32          C33   1.401       .  A
C32         C263   1.482       .  S
C33          H36   1.083       .  S
Zn37         O41   1.928       .  S
Zn37         O42   2.008       .  S
Zn37         O46   1.968   1_565  S
Zn37         O53   1.990       .  S
Zn38         O41   1.954   1_556  S
Zn38         O43   2.007   1_565  S
Zn38         O45   2.016   1_566  S
Zn38         O49   2.007   1_455  S
Zn39         O41   1.979   1_546  S
Zn39         O44   2.060   1_556  S
Zn39         O47   2.025       .  S
Zn39         O50   2.032       .  S
Zn40         O41   1.964   1_556  S
Zn40         O48   2.015       .  S
Zn40         O51   2.022       .  S
Zn40         O52   2.021   1_556  S
O42          C54   1.273   1_565  A
O43          C55   1.274       .  A
O44          C56   1.276       .  A
O45          C54   1.272       .  A
O46          C56   1.269       .  A
O47          C55   1.276       .  A
O48          C57   1.275       .  A
O49          C58   1.272       .  A
O50          C57   1.276   1_545  A
O51          C58   1.275   1_455  A
O52          C59   1.272       .  A
O53          C59   1.270       .  A
C54         C239   1.478   1_455  S
C55         C375   1.479       .  S
C56         C247   1.476       .  S
C57         C335   1.482       .  S
C58         C287   1.481       .  S
C59         C215   1.464       .  S
Zn60         O64   1.910       .  S
Zn60         O65   1.978   1_565  S
Zn60         O69   1.980       .  S
Zn60         O76   1.984       .  S
Zn61         O64   1.969   1_545  S
Zn61         O66   2.021       .  S
Zn61         O68   2.050       .  S
Zn61         O72   2.022       .  S
Zn62         O64   1.974       .  S
Zn62         O67   2.050       .  S
Zn62         O70   2.026       .  S
Zn62         O73   2.034       .  S
Zn63         O64   1.956       .  S
Zn63         O71   2.003       .  S
Zn63         O74   2.002   1_455  S
Zn63         O75   2.037   1_455  S
O65          C77   1.270       .  A
O66          C78   1.276       .  A
O67          C79   1.275       .  A
O68          C77   1.275       .  A
O69          C79   1.271       .  A
O70          C78   1.276   1_565  A
O71          C80   1.274       .  A
O72          C81   1.275   1_445  A
O73          C80   1.276       .  A
O74          C81   1.273       .  A
O75          C82   1.273       .  A
O76          C82   1.270   1_455  A
C77         C367   1.479       .  S
C78         C183   1.480       .  S
C79         C311   1.478       .  S
C80         C167   1.481       .  S
C81         C199   1.479       .  S
C82         C271   1.479       .  S
C83          C84   1.409       .  A
C83          C88   1.410       .  A
C83         C151   1.486       .  S
C84          C85   1.399       .  A
C84          H89   1.083       .  S
C85          C86   1.401       .  A
C85         C255   1.476       .  S
C86          C87   1.400       .  A
C86          H90   1.084       .  S
C87          C88   1.404       .  A
C87         C191   1.483       .  S
C88          H91   1.083       .  S
C92          C93   1.409       .  A
C92          C97   1.407       .  A
C92         C135   1.479       .  S
C93          C94   1.406       .  A
C93          H98   1.083       .  S
C94          C95   1.401       .  A
C94         C231   1.485       .  S
C95          C96   1.397       .  A
C95          H99   1.084       .  S
C96          C97   1.397       .  A
C96         C207   1.470       .  S
C97         H100   1.084       .  S
C101        C102   1.403       .  A
C101        C106   1.404       .  A
C101        C143   1.483       .  S
C102        C103   1.404       .  A
C102        H107   1.083       .  S
C103        C104   1.405       .  A
C103        C159   1.485       .  S
C104        C105   1.404       .  A
C104        H108   1.083       .  S
C105        C106   1.404       .  A
C105        C119   1.485       .  S
C106        H109   1.083       .  S
C110        C111   1.405       .  A
C110        C115   1.405       .  A
C110        C127   1.478       .  S
C111        C112   1.404   1_655  A
C111        H116   1.084       .  S
C112        C113   1.401       .  A
C112        C175   1.480       .  S
C113        C114   1.404   1_455  A
C113        H117   1.084       .  S
C114        C115   1.402       .  A
C114        C223   1.485   1_655  S
C115        H118   1.084       .  S
C119        C120   1.407       .  A
C119        C124   1.405       .  A
C120        C121   1.399       .  A
C120        H129   1.083       .  S
C121        C122   1.402       .  A
C121        H130   1.084       .  S
C122        C128   1.405       .  A
C122        C123   1.414       .  A
C123        C125   1.400       .  A
C123        C124   1.400       .  A
C124        H131   1.084       .  S
C125        C126   1.394       .  A
C125        H132   1.084       .  S
C126        C127   1.404       .  A
C126        H133   1.083       .  S
C127        C128   1.406       .  A
C128        H134   1.084       .  S
C135        C136   1.405       .  A
C135        C140   1.405       .  A
C136        C137   1.395       .  A
C136        H145   1.083       .  S
C137        C138   1.401       .  A
C137        H146   1.084       .  S
C138        C144   1.401       .  A
C138        C139   1.414       .  A
C139        C141   1.401       .  A
C139        C140   1.402       .  A
C140        H147   1.084       .  S
C141        C142   1.397       .  A
C141        H148   1.084       .  S
C142        C143   1.406       .  A
C142        H149   1.083       .  S
C143        C144   1.406       .  A
C144        H150   1.084       .  S
C151        C152   1.406       .  A
C151        C156   1.408       .  A
C152        C153   1.397       .  A
C152        H161   1.083       .  S
C153        C154   1.402       .  A
C153        H162   1.084       .  S
C154        C160   1.402       .  A
C154        C155   1.413       .  A
C155        C157   1.402       .  A
C155        C156   1.402       .  A
C156        H163   1.084       .  S
C157        C158   1.396       .  A
C157        H164   1.084       .  S
C158        C159   1.407       .  A
C158        H165   1.083       .  S
C159        C160   1.407       .  A
C160        H166   1.084       .  S
C167        C168   1.407   1_455  A
C167        C172   1.407       .  A
C168        C169   1.395       .  A
C168        H177   1.083       .  S
C169        C170   1.399   1_655  A
C169        H178   1.084       .  S
C170        C176   1.403   1_455  A
C170        C171   1.415       .  A
C171        C173   1.402       .  A
C171        C172   1.406       .  A
C172        H179   1.084       .  S
C173        C174   1.398       .  A
C173        H180   1.084       .  S
C174        C175   1.406       .  A
C174        H181   1.083       .  S
C175        C176   1.403   1_455  A
C176        H182   1.084       .  S
C183        C184   1.406       .  A
C183        C188   1.406       .  A
C184        C185   1.397       .  A
C184        H193   1.083       .  S
C185        C186   1.402       .  A
C185        H194   1.084       .  S
C186        C192   1.404       .  A
C186        C187   1.414       .  A
C187        C189   1.402       .  A
C187        C188   1.405       .  A
C188        H195   1.084       .  S
C189        C190   1.398       .  A
C189        H196   1.084       .  S
C190        C191   1.405       .  A
C190        H197   1.083       .  S
C191        C192   1.406       .  A
C192        H198   1.084       .  S
C199        C200   1.407       .  A
C199        C204   1.407   1_565  A
C200        C201   1.393       .  A
C200        H209   1.083       .  S
C201        C202   1.399       .  A
C201        H210   1.084       .  S
C202        C208   1.399       .  A
C202        C203   1.415   1_565  A
C203        C205   1.404       .  A
C203        C204   1.404       .  A
C204        H211   1.084       .  S
C205        C206   1.398       .  A
C205        H212   1.084       .  S
C206        C207   1.403       .  A
C206        H213   1.083       .  S
C207        C208   1.401   1_545  A
C208        H214   1.085       .  S
C215        C216   1.402       .  A
C215        C220   1.402       .  A
C216        C217   1.393       .  A
C216        H225   1.084       .  S
C217        C218   1.400       .  A
C217        H226   1.084       .  S
C218        C224   1.399       .  A
C218        C219   1.415       .  A
C219        C221   1.402   1_455  A
C219        C220   1.405       .  A
C220        H227   1.084   1_455  S
C221        C222   1.399       .  A
C221        H228   1.084       .  S
C222        C223   1.407   1_655  A
C222        H229   1.083       .  S
C223        C224   1.404       .  A
C224        H230   1.084       .  S
C231        C232   1.408       .  A
C231        C236   1.407       .  A
C232        C233   1.392       .  A
C232        H241   1.083       .  S
C233        C234   1.398       .  A
C233        H242   1.084   1_655  S
C234        C240   1.400   1_655  A
C234        C235   1.414       .  A
C235        C237   1.403       .  A
C235        C236   1.406       .  A
C236        H243   1.084       .  S
C237        C238   1.399       .  A
C237        H244   1.084       .  S
C238        C239   1.406       .  A
C238        H245   1.083   1_545  S
C239        C240   1.403   1_655  A
C240        H246   1.085       .  S
C247        C248   1.404       .  A
C247        C252   1.402       .  A
C248        C249   1.407       .  A
C248        H257   1.083       .  S
C249        C250   1.409       .  A
C249        H258   1.083       .  S
C250        C256   1.410       .  A
C250        C251   1.414       .  A
C251        C253   1.398       .  A
C251        C252   1.394       .  A
C252        H259   1.085       .  S
C253        C254   1.388       .  A
C253        H260   1.084       .  S
C254        C255   1.403       .  A
C254        H261   1.084       .  S
C255        C256   1.409       .  A
C256        H262   1.084       .  S
C263        C264   1.405       .  A
C263        C268   1.409       .  A
C264        C265   1.389       .  A
C264        H273   1.083       .  S
C265        C266   1.397       .  A
C265        H274   1.084       .  S
C266        C272   1.396       .  A
C266        C267   1.414       .  A
C267        C269   1.406       .  A
C267        C268   1.409       .  A
C268        H275   1.084       .  S
C269        C270   1.404       .  A
C269        H276   1.083       .  S
C270        C271   1.406       .  A
C270        H277   1.083       .  S
C271        C272   1.403       .  A
C272        H278   1.085       .  S
C279        C280   1.405       .  A
C279        C284   1.404       .  A
C280        C281   1.395       .  A
C280        H289   1.083       .  S
C281        C282   1.401       .  A
C281        H290   1.084       .  S
C282        C288   1.403       .  A
C282        C283   1.415       .  A
C283        C285   1.402       .  A
C283        C284   1.405       .  A
C284        H291   1.084       .  S
C285        C286   1.398       .  A
C285        H292   1.084       .  S
C286        C287   1.407       .  A
C286        H293   1.083       .  S
C287        C288   1.405       .  A
C288        H294   1.084       .  S
C295        C296   1.406       .  A
C295        C300   1.407       .  A
C296        C297   1.398       .  A
C296        H305   1.083       .  S
C297        C298   1.403       .  A
C297        H306   1.084       .  S
C298        C304   1.403       .  A
C298        C299   1.412       .  A
C299        C301   1.401       .  A
C299        C300   1.401       .  A
C300        H307   1.084       .  S
C301        C302   1.396       .  A
C301        H308   1.084       .  S
C302        C303   1.406       .  A
C302        H309   1.083       .  S
C303        C304   1.409       .  A
C304        H310   1.084       .  S
C311        C312   1.405       .  A
C311        C316   1.403       .  A
C312        C313   1.405       .  A
C312        H321   1.083       .  S
C313        C314   1.407       .  A
C313        H322   1.083       .  S
C314        C320   1.410       .  A
C314        C315   1.414       .  A
C315        C317   1.398       .  A
C315        C316   1.396       .  A
C316        H323   1.085       .  S
C317        C318   1.389       .  A
C317        H324   1.084       .  S
C318        C319   1.403       .  A
C318        H325   1.084       .  S
C319        C320   1.408       .  A
C320        H326   1.084       .  S
C327        C328   1.403       .  A
C327        C332   1.406       .  A
C328        C329   1.397       .  A
C328        H337   1.083       .  S
C329        C330   1.402       .  A
C329        H338   1.084       .  S
C330        C336   1.403       .  A
C330        C331   1.414       .  A
C331        C333   1.403       .  A
C331        C332   1.405       .  A
C332        H339   1.084       .  S
C333        C334   1.399       .  A
C333        H340   1.084   1_565  S
C334        C335   1.406       .  A
C334        H341   1.083   1_565  S
C335        C336   1.407       .  A
C336        H342   1.084       .  S
C343        C344   1.406       .  A
C343        C348   1.407       .  A
C344        C345   1.396       .  A
C344        H353   1.083       .  S
C345        C346   1.401       .  A
C345        H354   1.084       .  S
C346        C352   1.402       .  A
C346        C347   1.414       .  A
C347        C349   1.403       .  A
C347        C348   1.404       .  A
C348        H355   1.084       .  S
C349        C350   1.398       .  A
C349        H356   1.084       .  S
C350        C351   1.404       .  A
C350        H357   1.083       .  S
C351        C352   1.405       .  A
C352        H358   1.084       .  S
C359        C360   1.406       .  A
C359        C364   1.402       .  A
C360        C361   1.404       .  A
C360        H369   1.083       .  S
C361        C362   1.406       .  A
C361        H370   1.083       .  S
C362        C368   1.411       .  A
C362        C363   1.414       .  A
C363        C365   1.396       .  A
C363        C364   1.396       .  A
C364        H371   1.085       .  S
C365        C366   1.388       .  A
C365        H372   1.084       .  S
C366        C367   1.406       .  A
C366        H373   1.083       .  S
C367        C368   1.409       .  A
C368        H374   1.084       .  S
C375        C376   1.407       .  A
C375        C380   1.406       .  A
C376        C377   1.396       .  A
C376        H385   1.083       .  S
C377        C378   1.401       .  A
C377        H386   1.084       .  S
C378        C384   1.403       .  A
C378        C379   1.414       .  A
C379        C381   1.402       .  A
C379        C380   1.404       .  A
C380        H387   1.084       .  S
C381        C382   1.397       .  A
C381        H388   1.084       .  S
C382        C383   1.405       .  A
C382        H389   1.083       .  S
C383        C384   1.405       .  A
C384        H390   1.084       .  S
C391        C392   1.406       .  A
C391        C396   1.407       .  A
C392        C393   1.394       .  A
C392        H401   1.083       .  S
C393        C394   1.400       .  A
C393        H402   1.084       .  S
C394        C400   1.400       .  A
C394        C395   1.414       .  A
C395        C397   1.403       .  A
C395        C396   1.404       .  A
C396        H403   1.084       .  S
C397        C398   1.398       .  A
C397        H404   1.084       .  S
C398        C399   1.405       .  A
C398        H405   1.083       .  S
C399        C400   1.404       .  A
C400        H406   1.084       .  S
