geometry optimzed in LAMMPS
_audit_creation_date              2020-12-01 
_audit_creation_method            'lammps2cif' 
_symmetry_space_group_name_H-M    'P1' 
_symmetry_Int_Tables_number       1 
_symmetry_cell_setting            triclinic 
loop_ 
_symmetry_equiv_pos_as_xyz 
  x,y,z 
_cell_length_a                    32.08268972 
_cell_length_b                    40.390632839656 
_cell_length_c                    50.514616481336915 
_cell_angle_alpha                 90.02156577536864 
_cell_angle_beta                  89.87289866469655 
_cell_angle_gamma                 90.19012326451 
loop_ 
_atom_site_label 
_atom_site_type_symbol 
_atom_site_fract_x 
_atom_site_fract_y 
_atom_site_fract_z 
_atom_site_charge 
O1          O  0.57323940  0.72709969  0.23887083    -0.69900
O2          O  0.45479009  0.72794790  0.23839039    -0.70100
O3          O  0.51462016  0.75153618  0.20622733    -0.69900
O4          O  0.51336753  0.70349339  0.27104377    -0.70000
O5          O  0.51385836  0.74979193  0.29302799    -0.69900
O6          O  0.51497959  0.79784210  0.22820489    -0.69900
O7          O  0.45523303  0.77424110  0.26040345    -0.69900
O8          O  0.57366264  0.77344663  0.26081112    -0.70100
V9          V  0.51402456  0.72841745  0.23906502     1.35200
V10         V  0.51443590  0.77292650  0.26018517     1.35200
C11         C  0.59344753  0.75005950  0.25001956     0.79400
C12         C  0.43501820  0.75134571  0.24918272     0.79400
C13         C  0.51470576  0.78281908  0.20625933     0.79300
C14         C  0.51355890  0.71850522  0.29299490     0.79300
O15         O  0.01345605  0.79612530  0.27080538    -0.69900
O16         O  0.01159098  0.74567463  0.20709602    -0.70100
O17         O  0.95344931  0.76921093  0.24051173    -0.69900
O18         O  0.07166606  0.77271609  0.23736817    -0.70000
O19         O  0.07504833  0.72722475  0.26028221    -0.69900
O20         O  0.95669091  0.72378840  0.26352132    -0.69900
O21         O  0.01485007  0.70024604  0.23007445    -0.69900
O22         O  0.01688562  0.75066563  0.29373662    -0.70100
V23         V  0.01261278  0.77004081  0.23938912     1.35200
V24         V  0.01581907  0.72636123  0.26145294     1.35200
C25         C  0.01544763  0.78190849  0.29304885     0.79400
C26         C  0.01280203  0.71441166  0.20782020     0.79400
C27         C  0.93509397  0.74595818  0.25254657     0.79300
C28         C  0.09333062  0.75060337  0.24832959     0.79300
O29         O  0.52040273  0.29861748  0.73024665    -0.69900
O30         O  0.51717190  0.24624029  0.79287847    -0.70100
O31         O  0.57802304  0.27335163  0.76315785    -0.69900
O32         O  0.45973422  0.27146018  0.76005576    -0.70000
O33         O  0.46224111  0.22668965  0.73616564    -0.69900
O34         O  0.58054802  0.22858278  0.73927110    -0.69900
O35         O  0.51971506  0.20147068  0.76901280    -0.69900
O36         O  0.52295232  0.25386921  0.70636105    -0.70100
V37         V  0.51890772  0.27155199  0.76110791     1.35200
V38         V  0.52134814  0.22853283  0.73815513     1.35200
C39         C  0.52203800  0.28510822  0.70769930     0.79400
C40         C  0.51770906  0.21500450  0.79153810     0.79400
C41         C  0.59926250  0.25123918  0.75177847     0.79300
C42         C  0.44101787  0.24868255  0.74770292     0.79300
O43         O  0.01956201  0.24417056  0.70674651    -0.69900
O44         O  0.02136123  0.29627533  0.76954653    -0.70100
O45         O  0.07963329  0.26973684  0.73771170    -0.69900
O46         O  0.96121070  0.27072376  0.73865213    -0.70000
O47         O  0.96083026  0.22586046  0.76245698    -0.69900
O48         O  0.07922695  0.22484733  0.76148991    -0.69900
O49         O  0.02099586  0.25142595  0.79334865    -0.69900
O50         O  0.01914251  0.19928728  0.73050493    -0.70100
V51         V  0.02042548  0.26934156  0.73861782     1.35200
V52         V  0.02004729  0.22621899  0.76147815     1.35200
C53         C  0.01917579  0.21292587  0.70798766     0.79400
C54         C  0.02147323  0.28267532  0.79206709     0.79400
C55         C  0.09941390  0.24714451  0.74947304     0.79300
C56         C  0.94102634  0.24854591  0.75082640     0.79300
O57         O  0.51760629  0.76944886  0.73937038    -0.69900
O58         O  0.39932857  0.77110533  0.73649182    -0.70100
O59         O  0.45726516  0.79593281  0.76950522    -0.69900
O60         O  0.45980888  0.74459160  0.70636490    -0.70000
O61         O  0.45710604  0.69944340  0.72976054    -0.69900
O62         O  0.45464089  0.75080511  0.79292741    -0.69900
O63         O  0.39662674  0.72598004  0.75992726    -0.69900
O64         O  0.51500402  0.72428657  0.76276810    -0.70100
V65         V  0.45842828  0.76938197  0.73838690     1.35200
V66         V  0.45586944  0.72599960  0.76088864     1.35200
C67         C  0.53627751  0.74665519  0.75160192     0.79400
C68         C  0.37799318  0.74882732  0.74771422     0.79400
C69         C  0.45578432  0.78205133  0.79189677     0.79300
C70         C  0.45894366  0.71334625  0.70738485     0.79300
O71         O  0.89841161  0.77432423  0.76342171    -0.69900
O72         O  0.01678138  0.77520107  0.76018144    -0.70100
O73         O  0.95538146  0.79999116  0.73001708    -0.69900
O74         O  0.95974929  0.74950136  0.79361441    -0.70000
O75         O  0.95863129  0.70404328  0.77054996    -0.69900
O76         O  0.95424695  0.75452084  0.70696383    -0.69900
O77         O  0.01564074  0.72972579  0.73711513    -0.69900
O78         O  0.89731561  0.72883944  0.74036245    -0.70100
V79         V  0.95756860  0.77386943  0.76136256     1.35200
V80         V  0.95648755  0.73016876  0.73920083     1.35200
C81         C  0.87788679  0.75141804  0.75244011     0.79400
C82         C  0.03619821  0.75263908  0.74806189     0.79400
C83         C  0.95410092  0.78579264  0.70773455     0.79300
C84         C  0.95979425  0.71822253  0.79284496     0.79300
C85         C  0.48003995  0.92776292  0.97504065     0.05000
C86         C  0.48698566  0.91009784  0.99840043    -0.11100
C87         C  0.49526792  0.92692525  0.02200787     0.02500
C88         C  0.49755351  0.96163019  0.02214187    -0.09600
C89         C  0.48973172  0.98013861  0.99889872     0.05000
C90         C  0.48050353  0.96249187  0.97539928    -0.09100
H91         H  0.48591206  0.88325320  0.99821247     0.10600
H92         H  0.50572396  0.97384198  0.04047186     0.08200
H93         H  0.47320899  0.97540047  0.95725258     0.08000
C94         C  0.49853992  0.07033419  0.97573469     0.05000
C95         C  0.49238592  0.08752229  0.99945248    -0.11100
C96         C  0.48558363  0.07020000  0.02304836     0.02500
C97         C  0.48402257  0.03546437  0.02280943    -0.09600
C98         C  0.49097167  0.01745592  0.99916320     0.05000
C99         C  0.49880930  0.03560687  0.97570478    -0.09100
H100        H  0.49277089  0.11437599  0.99953428     0.10600
H101        H  0.47686002  0.02284423  0.04114501     0.08200
H102        H  0.50538319  0.02308517  0.95724644     0.08000
C103        C  0.48469380  0.42789839  0.47629059     0.05000
C104        C  0.49264592  0.41114128  0.49998723    -0.11100
C105        C  0.49961570  0.42889888  0.52335868     0.02500
C106        C  0.49935747  0.46362191  0.52290804    -0.09600
C107        C  0.49048417  0.48113851  0.49933955     0.05000
C108        C  0.48286872  0.46261670  0.47607444    -0.09100
H109        H  0.49340878  0.38429890  0.50023771     0.10600
H110        H  0.50647429  0.47670009  0.54104346     0.08200
H111        H  0.47510277  0.47489104  0.45771122     0.08000
C112        C  0.49624087  0.57130419  0.47568438     0.05000
C113        C  0.49779182  0.53655510  0.47576259    -0.11100
C114        C  0.48914348  0.51838541  0.49910865     0.02500
C115        C  0.47940501  0.53627128  0.52237043    -0.09600
C116        C  0.47946393  0.57097334  0.52249962     0.05000
C117        C  0.48747937  0.58838428  0.49911951    -0.09100
H118        H  0.50621745  0.52400442  0.45761033     0.10600
H119        H  0.47153622  0.52350237  0.54053645     0.08200
H120        H  0.48700863  0.61523758  0.49917818     0.08000
C121        C  0.97680980  0.92835005  0.52326154     0.05000
C122        C  0.98518399  0.91046329  0.50014709    -0.11100
C123        C  0.99591246  0.92704828  0.47678638     0.02500
C124        C  0.99901235  0.96170975  0.47665837    -0.09600
C125        C  0.98997686  0.98037404  0.49964450     0.05000
C126        C  0.97841579  0.96306425  0.52288040    -0.09100
H127        H  0.98340622  0.88364198  0.50034738     0.10600
H128        H  0.00884532  0.97383957  0.45858873     0.08200
H129        H  0.97032753  0.97631400  0.54077763     0.08000
C130        C  0.00301951  0.07014136  0.52277713     0.05000
C131        C  0.00152479  0.03542686  0.52281850    -0.11100
C132        C  0.99265343  0.01756233  0.49940937     0.02500
C133        C  0.98618472  0.03567254  0.47582107    -0.09600
C134        C  0.98914105  0.07034936  0.47557432     0.05000
C135        C  0.99722402  0.08749028  0.49910348    -0.09100
H136        H  0.00755341  0.02260205  0.54120974     0.10600
H137        H  0.97828780  0.02310509  0.45757967     0.08200
H138        H  0.99875848  0.11431950  0.49901989     0.08000
C139        C  0.98325826  0.42773402  0.02225620     0.05000
C140        C  0.99212704  0.41086344  0.99871910    -0.11100
C141        C  0.99923046  0.42848260  0.97527857     0.02500
C142        C  0.99830641  0.46321974  0.97549239    -0.09600
C143        C  0.98866640  0.48086978  0.99890529     0.05000
C144        C  0.98066508  0.46241826  0.02220458    -0.09100
H145        H  0.99353325  0.38403723  0.99864669     0.10600
H146        H  0.00560386  0.47618423  0.95732496     0.08200
H147        H  0.97212929  0.47469536  0.04044917     0.08000
C148        C  0.99276827  0.57085684  0.02301923     0.05000
C149        C  0.99463771  0.53616677  0.02266785    -0.11100
C150        C  0.98729709  0.51816895  0.99909024     0.02500
C151        C  0.97889877  0.53629056  0.97572076    -0.09600
C152        C  0.97869478  0.57106089  0.97584563     0.05000
C153        C  0.98520739  0.58820629  0.99956138    -0.09100
H154        H  0.00229960  0.52353525  0.04088488     0.10600
H155        H  0.97218171  0.52368217  0.95731784     0.08200
H156        H  0.98446743  0.61505132  0.99975347     0.08000
O157        O  0.46419146  0.20118879  0.22903735    -0.69900
O158        O  0.46410439  0.25066097  0.29323091    -0.70100
O159        O  0.40488440  0.22551679  0.26136655    -0.69900
O160        O  0.52326767  0.22632984  0.26096268    -0.70000
O161        O  0.52287023  0.27218429  0.23839459    -0.69900
O162        O  0.40445066  0.27133867  0.23875894    -0.69900
O163        O  0.46365197  0.29647450  0.27063722    -0.69900
O164        O  0.46381425  0.24700316  0.20644735    -0.70100
V165        V  0.46407476  0.22681022  0.26069865     1.35200
V166        V  0.46367484  0.27085273  0.23899055     1.35200
C167        C  0.46425844  0.21572061  0.20688432     0.79400
C168        C  0.46400982  0.28194402  0.29278503     0.79400
C169        C  0.38467898  0.24834955  0.25021787     0.79300
C170        C  0.54305111  0.24941758  0.24965264     0.79300
O171        O  0.96496592  0.25186293  0.20613182    -0.69900
O172        O  0.96273389  0.20145839  0.26983748    -0.70100
O173        O  0.90458431  0.22708884  0.23753570    -0.69900
O174        O  0.02299219  0.22617812  0.23852993    -0.70000
O175        O  0.02314142  0.27167747  0.26158229    -0.69900
O176        O  0.90479331  0.27261745  0.26054994    -0.69900
O177        O  0.96288306  0.24694828  0.29287449    -0.69900
O178        O  0.96518649  0.29735724  0.22915608    -0.70100
V179        V  0.96379557  0.22754127  0.23844424     1.35200
V180        V  0.96397069  0.27127202  0.26057826     1.35200
C181        C  0.96551964  0.28314343  0.20685801     0.79400
C182        C  0.96272310  0.21567059  0.29212837     0.79400
C183        C  0.88470327  0.24997379  0.24893118     0.79300
C184        C  0.04304169  0.24869623  0.25034208     0.79300
C185        C  0.17014427  0.24811067  0.25152877     0.18900
C186        C  0.19205586  0.23774520  0.27400533    -0.10200
C187        C  0.23567731  0.23783730  0.27390714    -0.11000
C188        C  0.25752719  0.24829132  0.25133441     0.20500
C189        C  0.23559057  0.25872001  0.22890535    -0.13100
C190        C  0.19201168  0.25862834  0.22900370    -0.11400
C191        C  0.30239181  0.24823588  0.25109256     0.01500
C192        C  0.33996786  0.24824332  0.25066997    -0.31400
C193        C  0.12528657  0.24799694  0.25147873     0.02800
C194        C  0.08772241  0.24818841  0.25101828    -0.33000
H195        H  0.17545668  0.22958444  0.29154073     0.13900
H196        H  0.25233072  0.22973513  0.29136630     0.13700
H197        H  0.25216134  0.26686376  0.21135370     0.13600
H198        H  0.17538217  0.26671407  0.21152935     0.12600
C199        C  0.75755488  0.25019434  0.24909132     0.18900
C200        C  0.73581596  0.26988716  0.26728333    -0.10200
C201        C  0.69221147  0.26980357  0.26747054    -0.11000
C202        C  0.67017744  0.25002516  0.24946676     0.20500
C203        C  0.69191875  0.23030988  0.23130116    -0.13100
C204        C  0.73551157  0.23039342  0.23111386    -0.11400
C205        C  0.62532221  0.24995431  0.24959763     0.01500
C206        C  0.58774958  0.24977091  0.24961716    -0.31400
C207        C  0.80241697  0.25024619  0.24889293     0.02800
C208        C  0.83999478  0.25017328  0.24880018    -0.33000
H209        H  0.75254924  0.28527274  0.28128620     0.13900
H210        H  0.67571038  0.28513151  0.28161014     0.13700
H211        H  0.67519052  0.21491383  0.21730268     0.13600
H212        H  0.75200351  0.21505424  0.21697800     0.12600
C213        C  0.96899617  0.33761462  0.13838402     0.18900
C214        C  0.99304417  0.36663654  0.13711570    -0.10200
C215        C  0.99467293  0.38520542  0.11369428    -0.11000
C216        C  0.97225849  0.37493353  0.09132496     0.20500
C217        C  0.94811536  0.34596105  0.09260905    -0.13100
C218        C  0.94648264  0.32738867  0.11603734    -0.11400
C219        C  0.97462087  0.39379760  0.06700970     0.01500
C220        C  0.97771803  0.40939808  0.04663875    -0.31400
C221        C  0.96758243  0.31832530  0.16251885     0.02800
C222        C  0.96657066  0.30224220  0.18272988    -0.33000
H223        H  0.01062189  0.37485908  0.15419866     0.13900
H224        H  0.01353249  0.40748918  0.11300055     0.13700
H225        H  0.93069629  0.33766269  0.07548436     0.13600
H226        H  0.92777490  0.30502429  0.11669748     0.12600
C227        C  0.97625130  0.12330735  0.40684311     0.18900
C228        C  0.01199960  0.13466779  0.39360766    -0.10200
C229        C  0.00829351  0.15345130  0.37042691    -0.11000
C230        C  0.96881407  0.16104644  0.36028234     0.20500
C231        C  0.93305072  0.14967688  0.37350555    -0.13100
C232        C  0.93675971  0.13088240  0.39669987    -0.11400
C233        C  0.96516946  0.18041580  0.33633604     0.01500
C234        C  0.96328918  0.19656306  0.31621430    -0.31400
C235        C  0.98013286  0.10414781  0.43087796     0.02800
C236        C  0.98384556  0.08848241  0.45113617    -0.33000
H237        H  0.04271592  0.12904616  0.40121958     0.13900
H238        H  0.03620178  0.16205936  0.36042647     0.13700
H239        H  0.90234317  0.15534333  0.36590496     0.13600
H240        H  0.90886485  0.12230495  0.40672871     0.12600
C241        C  0.47236404  0.37403827  0.40793819     0.18900
C242        C  0.47664991  0.38932972  0.38316228    -0.10200
C243        C  0.47431316  0.37048010  0.35991906    -0.11000
C244        C  0.46768575  0.33618589  0.36126063     0.20500
C245        C  0.46331584  0.32089657  0.38603646    -0.13100
C246        C  0.46565397  0.33975035  0.40928465    -0.11400
C247        C  0.46575312  0.31673676  0.33726156     0.01500
C248        C  0.46463266  0.30071731  0.31704205    -0.31400
C249        C  0.47547334  0.39339872  0.43192984     0.02800
C250        C  0.47898062  0.40934662  0.45207618    -0.33000
H251        H  0.48194689  0.41578096  0.38181592     0.13900
H252        H  0.47780649  0.38262440  0.34092019     0.13700
H253        H  0.45824252  0.29441894  0.38738467     0.13600
H254        H  0.46238700  0.32758547  0.42829085     0.12600
C255        C  0.46951295  0.16156569  0.13836690     0.18900
C256        C  0.43328516  0.15333669  0.12430274    -0.10200
C257        C  0.43585852  0.13435260  0.10112514    -0.11000
C258        C  0.47467655  0.12343503  0.09183434     0.20500
C259        C  0.51090389  0.13170476  0.10587980    -0.13100
C260        C  0.50833249  0.15068270  0.12904865    -0.11400
C261        C  0.47743734  0.10403642  0.06783472     0.01500
C262        C  0.48051600  0.08824778  0.04757403    -0.31400
C263        C  0.46690868  0.18096421  0.16238176     0.02800
C264        C  0.46528284  0.19695673  0.18261085    -0.33000
H265        H  0.40307721  0.16156475  0.13125663     0.13900
H266        H  0.40761298  0.12821064  0.09045809     0.13700
H267        H  0.54112107  0.12350161  0.09891883     0.13600
H268        H  0.53659164  0.15684129  0.13969747     0.12600
C269        C  0.95770254  0.87691393  0.59210434     0.18900
C270        C  0.95998582  0.89289989  0.61670472    -0.10200
C271        C  0.95772053  0.87450586  0.64017981    -0.11000
C272        C  0.95317613  0.83998192  0.63923700     0.20500
C273        C  0.95039666  0.82403892  0.61463585    -0.13100
C274        C  0.95266161  0.84243292  0.59116154    -0.11400
C275        C  0.95244689  0.82089003  0.66343417     0.01500
C276        C  0.95279697  0.80488723  0.68366279    -0.31400
C277        C  0.96213418  0.89566557  0.56789663     0.02800
C278        C  0.96770694  0.91090604  0.54758845    -0.33000
H279        H  0.96401933  0.91951039  0.61773603     0.13900
H280        H  0.95997281  0.88715528  0.65904086     0.13700
H281        H  0.94694438  0.79737901  0.61359735     0.13600
H282        H  0.95099123  0.82973585  0.57229549     0.12600
C283        C  0.96635901  0.62508762  0.90757989     0.18900
C284        C  0.95738946  0.61003279  0.88321919    -0.10200
C285        C  0.95567857  0.62906153  0.86004518    -0.11000
C286        C  0.96294869  0.66330330  0.86102865     0.20500
C287        C  0.97168509  0.67838645  0.88541285    -0.13100
C288        C  0.97339323  0.65936082  0.90858388    -0.11400
C289        C  0.96179955  0.68285127  0.83704614     0.01500
C290        C  0.96096977  0.69907182  0.81691835    -0.31400
C291        C  0.96914191  0.60538373  0.93142323     0.02800
C292        C  0.97265476  0.58934608  0.95152534    -0.33000
H293        H  0.95195160  0.58358260  0.88211513     0.13900
H294        H  0.94888995  0.61705362  0.84135748     0.13700
H295        H  0.97736935  0.70480661  0.88649630     0.13600
H296        H  0.98042474  0.67134256  0.92724691     0.12600
C297        C  0.25083690  0.75146975  0.74575458     0.18900
C298        C  0.22924937  0.76583128  0.76696774    -0.10200
C299        C  0.18566153  0.76654283  0.76695782    -0.11000
C300        C  0.16340723  0.75289953  0.74573344     0.20500
C301        C  0.18498336  0.73870486  0.72442840    -0.13100
C302        C  0.22860561  0.73799290  0.72443822    -0.11400
C303        C  0.11850332  0.75306113  0.74606477     0.01500
C304        C  0.08091457  0.75296980  0.74681911    -0.31400
C305        C  0.29571402  0.75036405  0.74603110     0.02800
C306        C  0.33328492  0.74954829  0.74667325    -0.33000
H307        H  0.24609610  0.77633231  0.78354999     0.13900
H308        H  0.16932578  0.77756326  0.78354130     0.13700
H309        H  0.16811116  0.72806272  0.70791506     0.13600
H310        H  0.24495846  0.72683055  0.70792369     0.12600
C311        C  0.75074992  0.74987320  0.75435354     0.18900
C312        C  0.72926920  0.72912837  0.77198769    -0.10200
C313        C  0.68566193  0.72812798  0.77180957    -0.11000
C314        C  0.66337303  0.74786084  0.75398890     0.20500
C315        C  0.68486681  0.76869239  0.73644120    -0.13100
C316        C  0.72844075  0.76969245  0.73661948    -0.11400
C317        C  0.61851844  0.74672972  0.75357990     0.01500
C318        C  0.58095402  0.74632311  0.75282848    -0.31400
C319        C  0.79562156  0.75056858  0.75418955     0.02800
C320        C  0.83319560  0.75105413  0.75358973    -0.33000
H321        H  0.74620464  0.71367822  0.78577304     0.13900
H322        H  0.66936599  0.71194236  0.78547608     0.13700
H323        H  0.66795574  0.78406783  0.72258874     0.13600
H324        H  0.74471919  0.78580271  0.72288601     0.12600
C325        C  0.46597554  0.87516604  0.90630526     0.18900
C326        C  0.42892533  0.87489798  0.89163159    -0.10200
C327        C  0.42601856  0.85600189  0.86842961    -0.11000
C328        C  0.46013757  0.83724974  0.85976218     0.20500
C329        C  0.49716497  0.83753893  0.87444151    -0.13100
C330        C  0.50006824  0.85641498  0.89761988    -0.11400
C331        C  0.45734569  0.81780773  0.83582606     0.01500
C332        C  0.45601119  0.80147743  0.81579127    -0.31400
C333        C  0.46914686  0.89448121  0.93028994     0.02800
C334        C  0.47318940  0.91006404  0.95056213    -0.33000
H335        H  0.40233235  0.88925711  0.89812026     0.15500
H336        H  0.39722334  0.85601840  0.85726827     0.13700
H337        H  0.52377737  0.82318447  0.86797050     0.13600
H338        H  0.52887843  0.85637692  0.90876953     0.12600
C339        C  0.46622597  0.62300633  0.59150321     0.18900
C340        C  0.48046860  0.65584355  0.59221216    -0.10200
C341        C  0.47875898  0.67395077  0.61582561    -0.11000
C342        C  0.46280909  0.65934695  0.63890614     0.20500
C343        C  0.44849125  0.62652094  0.63819595    -0.13100
C344        C  0.45020636  0.60840172  0.61456835    -0.11400
C345        C  0.46123826  0.67803568  0.66325224     0.01500
C346        C  0.46010455  0.69398576  0.68347892    -0.31400
C347        C  0.46886076  0.60421563  0.56725334     0.02800
C348        C  0.47260671  0.58883716  0.54687426    -0.33000
H349        H  0.49303614  0.66739456  0.57454823     0.13900
H350        H  0.48994943  0.69928619  0.61609974     0.13700
H351        H  0.43611243  0.61493054  0.65589457     0.13600
H352        H  0.43921267  0.58301342  0.61431027     0.12600
C353        C  0.01720210  0.15804524  0.63977989     0.18900
C354        C  0.97979838  0.14335101  0.63148405    -0.10200
C355        C  0.97837163  0.12523090  0.60785729    -0.11000
C356        C  0.01433186  0.12163557  0.59230973     0.20500
C357        C  0.05180442  0.13623681  0.60062640    -0.13100
C358        C  0.05323424  0.15437606  0.62428075    -0.11400
C359        C  0.01245454  0.10327459  0.56776972     0.01500
C360        C  0.00920720  0.08806145  0.54724644    -0.31400
C361        C  0.01838810  0.17710048  0.66400762     0.02800
C362        C  0.01883639  0.19328008  0.68416207    -0.33000
H363        H  0.95170871  0.14599597  0.64322901     0.13900
H364        H  0.94919213  0.11412246  0.60166846     0.13700
H365        H  0.07982753  0.13370083  0.58880399     0.13600
H366        H  0.08235338  0.16561722  0.63042597     0.12600
C367        C  0.01566607  0.37661330  0.90629771     0.18900
C368        C  0.00070800  0.38947250  0.88236338    -0.10200
C369        C  0.00310724  0.37067880  0.85909116    -0.11000
C370        C  0.02046754  0.33886767  0.85956567     0.20500
C371        C  0.03582745  0.32614303  0.88344262    -0.13100
C372        C  0.03342560  0.34493835  0.90671839    -0.11400
C373        C  0.02168351  0.31907582  0.83572711     0.01500
C374        C  0.02190998  0.30243987  0.81581629    -0.31400
C375        C  0.01162127  0.39545833  0.93050124     0.02800
C376        C  0.00683228  0.41077993  0.95085614    -0.33000
H377        H  0.98681977  0.41387209  0.88174423     0.13900
H378        H  0.99108029  0.38082337  0.84079642     0.13700
H379        H  0.04928978  0.30159525  0.88411699     0.13600
H380        H  0.04502241  0.33464710  0.92507300     0.12600
C381        C  0.31391435  0.24692235  0.74758852     0.18900
C382        C  0.29222546  0.27520329  0.75576321    -0.10200
C383        C  0.24864138  0.27508593  0.75629704    -0.11000
C384        C  0.22654759  0.24668036  0.74866421     0.20500
C385        C  0.24822942  0.21835502  0.74056573    -0.13100
C386        C  0.29183146  0.21847216  0.74003238    -0.11400
C387        C  0.18169024  0.24668098  0.74901034     0.01500
C388        C  0.14411626  0.24684010  0.74922131    -0.31400
C389        C  0.35876834  0.24713302  0.74706573     0.02800
C390        C  0.39633997  0.24769558  0.74703269    -0.33000
H391        H  0.30899114  0.29731511  0.76169013     0.13900
H392        H  0.23219526  0.29711688  0.76260455     0.13700
H393        H  0.23145227  0.19625144  0.73463471     0.13600
H394        H  0.30828878  0.19644911  0.73372147     0.12600
C395        C  0.81384581  0.25029565  0.75269426     0.18900
C396        C  0.79263619  0.26723024  0.77283534    -0.10200
C397        C  0.74900698  0.26774744  0.77317159    -0.11000
C398        C  0.72642869  0.25133202  0.75336505     0.20500
C399        C  0.74766374  0.23437762  0.73327078    -0.13100
C400        C  0.79124154  0.23386098  0.73293484    -0.11400
C401        C  0.68154209  0.25186312  0.75350844     0.01500
C402        C  0.64395646  0.25182136  0.75297720    -0.31400
C403        C  0.85872935  0.24978341  0.75220484     0.02800
C404        C  0.89630570  0.24920293  0.75155223    -0.33000
H405        H  0.80979299  0.28002572  0.78822078     0.13900
H406        H  0.73292245  0.28093594  0.78880964     0.13700
H407        H  0.73053856  0.22159998  0.71786020     0.13600
H408        H  0.80729411  0.22069083  0.71727206     0.12600
C409        C  0.51368862  0.37809690  0.59303065     0.18900
C410        C  0.55051164  0.36120037  0.59925523    -0.10200
C411        C  0.55324136  0.34277004  0.62270350    -0.11000
C412        C  0.51916335  0.34109022  0.64010395     0.20500
C413        C  0.48246874  0.35818528  0.63395617    -0.13100
C414        C  0.47974274  0.37660043  0.61052919    -0.11400
C415        C  0.52147617  0.32149595  0.66401972     0.01500
C416        C  0.52232149  0.30493390  0.68396600    -0.31400
C417        C  0.51033461  0.39643231  0.56854138     0.02800
C418        C  0.50626473  0.41140741  0.54797214    -0.33000
H419        H  0.57698076  0.36209267  0.58591802     0.13900
H420        H  0.58179040  0.32968120  0.62717279     0.13700
H421        H  0.45587525  0.35710923  0.64718749     0.13600
H422        H  0.45107547  0.38948668  0.60598050     0.12600
C423        C  0.51186361  0.15981139  0.85943932     0.18900
C424        C  0.48973054  0.17190012  0.88135116    -0.10200
C425        C  0.48789106  0.15351595  0.90483801    -0.11000
C426        C  0.50817577  0.12289879  0.90660571     0.20500
C427        C  0.53019809  0.11075285  0.88467061    -0.13100
C428        C  0.53204138  0.12914437  0.86117617    -0.11400
C429        C  0.50616819  0.10397041  0.93084828     0.01500
C430        C  0.50353524  0.08843993  0.95124712    -0.31400
C431        C  0.51405105  0.17894531  0.83529932     0.02800
C432        C  0.51585655  0.19524035  0.81524925    -0.33000
H433        H  0.47397048  0.19554293  0.88029602     0.13900
H434        H  0.47069081  0.16317937  0.92161071     0.13700
H435        H  0.54594871  0.08710802  0.88573432     0.13600
H436        H  0.54923895  0.11948761  0.84440182     0.12600
C437        C  0.00928558  0.87297816  0.40871273     0.18900
C438        C  0.04782477  0.86736252  0.39637410    -0.10200
C439        C  0.04988101  0.84876415  0.37296882    -0.11000
C440        C  0.01341369  0.83566638  0.36175946     0.20500
C441        C  0.97494452  0.84118012  0.37417956    -0.13100
C442        C  0.97289229  0.85975001  0.39755089    -0.11400
C443        C  0.01524414  0.81675320  0.33749643     0.01500
C444        C  0.01576276  0.80091655  0.31718149    -0.31400
C445        C  0.00679051  0.89236428  0.43270462     0.02800
C446        C  0.00288511  0.90839349  0.45277095    -0.33000
H447        H  0.07620487  0.87741209  0.40478890     0.13900
H448        H  0.07982986  0.84468271  0.36359392     0.13700
H449        H  0.94652489  0.83120201  0.36575916     0.13600
H450        H  0.94291056  0.86386743  0.40687821     0.12600
C451        C  0.00864611  0.65989973  0.13946454     0.18900
C452        C  0.02351773  0.67330333  0.11563249    -0.10200
C453        C  0.02136919  0.65484645  0.09218026    -0.11000
C454        C  0.00434977  0.62282651  0.09236570     0.20500
C455        C  0.98959603  0.60936938  0.11621331    -0.13100
C456        C  0.99174274  0.62783166  0.13967170    -0.11400
C457        C  0.00141700  0.60406503  0.06805929     0.01500
C458        C  0.99813294  0.58873996  0.04758955    -0.31400
C459        C  0.01044323  0.67911179  0.16359655     0.02800
C460        C  0.01168810  0.69525662  0.18375381    -0.33000
H461        H  0.03662788  0.69804970  0.11516109     0.13900
H462        H  0.03280789  0.66559247  0.07389764     0.13700
H463        H  0.97628600  0.58468849  0.11665179     0.13600
H464        H  0.98009973  0.61715678  0.15792918     0.12600
C465        C  0.30788387  0.75367164  0.24708078     0.18900
C466        C  0.28575811  0.77207482  0.26593799    -0.10200
C467        C  0.24215176  0.77219816  0.26564977    -0.11000
C468        C  0.22046304  0.75392537  0.24649706     0.20500
C469        C  0.24259365  0.73581179  0.22746268    -0.13100
C470        C  0.28620213  0.73568837  0.22775106    -0.11400
C471        C  0.17557900  0.75317182  0.24674013     0.01500
C472        C  0.13801247  0.75208686  0.24731045    -0.31400
C473        C  0.35274490  0.75286882  0.24780202     0.02800
C474        C  0.39030487  0.75206914  0.24851543    -0.33000
H475        H  0.30219007  0.78609453  0.28095983     0.13900
H476        H  0.22537189  0.78628791  0.28046735     0.13700
H477        H  0.22615625  0.72158842  0.21256565     0.13600
H478        H  0.30297931  0.72139488  0.21305842     0.12600
C479        C  0.80791981  0.74522843  0.25372888     0.18900
C480        C  0.78580731  0.72364011  0.23714258    -0.10200
C481        C  0.74224141  0.72470045  0.23641912    -0.11000
C482        C  0.72056845  0.74736955  0.25226397     0.20500
C483        C  0.74266833  0.76886628  0.26894002    -0.13100
C484        C  0.78624407  0.76780579  0.26966361    -0.11400
C485        C  0.67572961  0.74859637  0.25135413     0.01500
C486        C  0.63816990  0.74942791  0.25061667    -0.31400
C487        C  0.85280452  0.74467936  0.25397472     0.02800
C488        C  0.89039890  0.74483728  0.25363101    -0.33000
H489        H  0.80223379  0.70613351  0.22469362     0.13900
H490        H  0.72548643  0.70795214  0.22346105     0.13700
H491        H  0.72624507  0.78648538  0.28128813     0.13600
H492        H  0.80301419  0.78466614  0.28252104     0.12600
C493        C  0.50580568  0.87321540  0.09043238     0.18900
C494        C  0.52711849  0.84296095  0.09069544    -0.10200
C495        C  0.52925419  0.82428212  0.11402125    -0.11000
C496        C  0.51007156  0.83572139  0.13724176     0.20500
C497        C  0.48859874  0.86589652  0.13693368    -0.13100
C498        C  0.48646773  0.88456680  0.11362052    -0.11400
C499        C  0.51243628  0.81663518  0.16137303     0.01500
C500        C  0.51393736  0.80103639  0.18176684    -0.31400
C501        C  0.50345725  0.89247003  0.06639149     0.02800
C502        C  0.50055604  0.90843247  0.04624433    -0.33000
H503        H  0.54208160  0.83383393  0.07289699     0.13900
H504        H  0.54588250  0.80098102  0.11395740     0.13700
H505        H  0.47356267  0.87500662  0.15471375     0.13600
H506        H  0.46977402  0.90783987  0.11368130     0.12600
C507        C  0.50955023  0.62668481  0.40827297     0.18900
C508        C  0.54037184  0.62085759  0.38912283    -0.10200
C509        C  0.54197952  0.64015969  0.36608588    -0.11000
C510        C  0.51278337  0.66542257  0.36203959     0.20500
C511        C  0.48229076  0.67149299  0.38134223    -0.13100
C512        C  0.48068829  0.65220937  0.40436237    -0.11400
C513        C  0.51349932  0.68460155  0.33789211     0.01500
C514        C  0.51356609  0.70026066  0.31749398    -0.31400
C515        C  0.50692072  0.60624638  0.43169942     0.02800
C516        C  0.50304325  0.58971536  0.45151323    -0.33000
H517        H  0.56289799  0.60124559  0.39188767     0.13900
H518        H  0.56572400  0.63519545  0.35134104     0.13700
H519        H  0.45953952  0.69092347  0.37849217     0.13600
H520        H  0.45672603  0.65701517  0.41900103     0.12600
loop_ 
_geom_bond_atom_site_label_1 
_geom_bond_atom_site_label_2 
_geom_bond_distance 
_geom_bond_site_symmetry_2 
_ccdc_geom_bond_type 
O1            V9   1.901       .  S
O1           C11   1.263       .  A
O2            V9   1.901       .  S
O2           C12   1.263       .  A
O3            V9   1.904       .  S
O3           C13   1.264       .  A
O4            V9   1.904       .  S
O4           C14   1.264       .  A
O5           V10   1.904       .  S
O5           C14   1.264       .  A
O6           V10   1.904       .  S
O6           C13   1.264       .  A
O7           V10   1.900       .  S
O7           C12   1.263       .  A
O8           V10   1.901       .  S
O8           C11   1.263       .  A
V9           V10   2.090       .  T
C11         C486   1.436       .  S
C12         C474   1.435       .  S
C13         C500   1.440       .  S
C14         C514   1.441       .  S
O15          V23   1.905       .  S
O15          C25   1.264       .  A
O16          V23   1.905       .  S
O16          C26   1.264       .  A
O17          V23   1.899   1_655  S
O17          C27   1.262       .  A
O18          V23   1.900       .  S
O18          C28   1.262       .  A
O19          V24   1.901       .  S
O19          C28   1.263       .  A
O20          V24   1.902   1_655  S
O20          C27   1.263       .  A
O21          V24   1.904       .  S
O21          C26   1.264       .  A
O22          V24   1.903       .  S
O22          C25   1.263       .  A
V23          V24   2.090       .  T
C25         C444   1.440       .  S
C26         C460   1.441       .  S
C27         C488   1.435       .  S
C28         C472   1.435       .  S
O29          V37   1.905       .  S
O29          C39   1.264       .  A
O30          V37   1.904       .  S
O30          C40   1.264       .  A
O31          V37   1.901       .  S
O31          C41   1.263       .  A
O32          V37   1.899       .  S
O32          C42   1.263       .  A
O33          V38   1.900       .  S
O33          C42   1.263       .  A
O34          V38   1.900       .  S
O34          C41   1.263       .  A
O35          V38   1.905       .  S
O35          C40   1.264       .  A
O36          V38   1.905       .  S
O36          C39   1.264       .  A
V37          V38   2.090       .  T
C39         C416   1.442       .  S
C40         C432   1.441       .  S
C41         C402   1.435       .  S
C42         C390   1.434       .  S
O43          V51   1.904       .  S
O43          C53   1.264       .  A
O44          V51   1.904       .  S
O44          C54   1.264       .  A
O45          V51   1.900       .  S
O45          C55   1.263       .  A
O46          V51   1.901   1_655  S
O46          C56   1.263       .  A
O47          V52   1.900   1_655  S
O47          C56   1.263       .  A
O48          V52   1.900       .  S
O48          C55   1.262       .  A
O49          V52   1.905       .  S
O49          C54   1.264       .  A
O50          V52   1.905       .  S
O50          C53   1.264       .  A
V51          V52   2.090       .  T
C53         C362   1.441       .  S
C54         C374   1.441       .  S
C55         C388   1.434       .  S
C56         C404   1.435       .  S
O57          V65   1.899       .  S
O57          C67   1.263       .  A
O58          V65   1.900       .  S
O58          C68   1.263       .  A
O59          V65   1.903       .  S
O59          C69   1.263       .  A
O60          V65   1.903       .  S
O60          C70   1.263       .  A
O61          V66   1.904       .  S
O61          C70   1.263       .  A
O62          V66   1.904       .  S
O62          C69   1.264       .  A
O63          V66   1.901       .  S
O63          C68   1.263       .  A
O64          V66   1.901       .  S
O64          C67   1.263       .  A
V65          V66   2.090       .  T
C67         C318   1.435       .  S
C68         C306   1.436       .  S
C69         C332   1.439       .  S
C70         C346   1.439       .  S
O71          V79   1.901       .  S
O71          C81   1.263       .  A
O72          V79   1.901   1_455  S
O72          C82   1.263       .  A
O73          V79   1.905       .  S
O73          C83   1.264       .  A
O74          V79   1.905       .  S
O74          C84   1.264       .  A
O75          V80   1.905       .  S
O75          C84   1.264       .  A
O76          V80   1.904       .  S
O76          C83   1.264       .  A
O77          V80   1.901   1_455  S
O77          C82   1.263       .  A
O78          V80   1.900       .  S
O78          C81   1.263       .  A
V79          V80   2.090       .  T
C81         C320   1.435       .  S
C82         C304   1.436       .  S
C83         C276   1.441       .  S
C84         C290   1.442       .  S
C85         C334   1.445       .  S
C85          C86   1.398       .  A
C85          C90   1.403       .  A
C86          C87   1.398   1_556  A
C86          H91   1.085       .  S
C87         C502   1.445       .  S
C87          C88   1.403       .  A
C88          C89   1.415   1_554  A
C88          H92   1.081       .  S
C89          C90   1.416       .  A
C89          C98   1.508   1_565  S
C90          H93   1.081       .  S
C94         C430   1.446       .  S
C94          C95   1.398       .  A
C94          C99   1.403       .  A
C95          C96   1.399   1_556  A
C95         H100   1.085       .  S
C96         C262   1.446       .  S
C96          C97   1.404       .  A
C97          C98   1.416   1_554  A
C97         H101   1.081       .  S
C98          C99   1.415       .  A
C99         H102   1.081       .  S
C103        C250   1.446       .  S
C103        C104   1.400       .  A
C103        C108   1.404       .  A
C104        C105   1.399       .  A
C104        H109   1.085       .  S
C105        C418   1.447       .  S
C105        C106   1.403       .  A
C106        C107   1.415       .  A
C106        H110   1.082       .  S
C107        C108   1.414       .  A
C107        C114   1.505       .  S
C108        H111   1.082       .  S
C112        C516   1.446       .  S
C112        C113   1.405       .  A
C112        C117   1.398       .  A
C113        C114   1.416       .  A
C113        H118   1.082       .  S
C114        C115   1.414       .  A
C115        C116   1.402       .  A
C115        H119   1.082       .  S
C116        C348   1.444       .  S
C116        C117   1.398       .  A
C117        H120   1.085       .  S
C121        C278   1.446       .  S
C121        C122   1.399       .  A
C121        C126   1.403       .  A
C122        C123   1.399       .  A
C122        H127   1.085       .  S
C123        C446   1.445   1_655  S
C123        C124   1.403       .  A
C124        C125   1.414       .  A
C124        H128   1.082   1_655  S
C125        C126   1.415       .  A
C125        C132   1.504   1_565  S
C126        H129   1.082       .  S
C130        C360   1.446       .  S
C130        C131   1.403       .  A
C130        C135   1.399   1_455  A
C131        C132   1.414   1_455  A
C131        H136   1.082       .  S
C132        C133   1.414       .  A
C133        C134   1.404       .  A
C133        H137   1.082       .  S
C134        C236   1.446       .  S
C134        C135   1.400       .  A
C135        H138   1.085       .  S
C139        C220   1.448       .  S
C139        C140   1.399   1_554  A
C139        C144   1.404       .  A
C140        C141   1.400       .  A
C140        H145   1.085       .  S
C141        C376   1.446   1_655  S
C141        C142   1.404       .  A
C142        C143   1.415       .  A
C142        H146   1.082   1_655  S
C143        C144   1.416   1_556  A
C143        C150   1.507       .  S
C144        H147   1.082       .  S
C148        C458   1.446       .  S
C148        C149   1.403       .  A
C148        C153   1.399   1_554  A
C149        C150   1.415   1_554  A
C149        H154   1.082   1_655  S
C150        C151   1.416       .  A
C151        C152   1.404       .  A
C151        H155   1.082       .  S
C152        C292   1.447       .  S
C152        C153   1.399       .  A
C153        H156   1.085       .  S
O157        V165   1.905       .  S
O157        C167   1.264       .  A
O158        V165   1.905       .  S
O158        C168   1.264       .  A
O159        V165   1.900       .  S
O159        C169   1.262       .  A
O160        V165   1.899       .  S
O160        C170   1.262       .  A
O161        V166   1.900       .  S
O161        C170   1.263       .  A
O162        V166   1.900       .  S
O162        C169   1.263       .  A
O163        V166   1.904       .  S
O163        C168   1.264       .  A
O164        V166   1.905       .  S
O164        C167   1.264       .  A
V165        V166   2.090       .  T
C167        C264   1.442       .  S
C168        C248   1.441       .  S
C169        C192   1.435       .  S
C170        C206   1.434       .  S
O171        V179   1.906       .  S
O171        C181   1.264       .  A
O172        V179   1.904       .  S
O172        C182   1.264       .  A
O173        V179   1.900       .  S
O173        C183   1.263       .  A
O174        V179   1.900   1_455  S
O174        C184   1.263       .  A
O175        V180   1.899   1_455  S
O175        C184   1.262       .  A
O176        V180   1.900       .  S
O176        C183   1.262       .  A
O177        V180   1.905       .  S
O177        C182   1.264       .  A
O178        V180   1.906       .  S
O178        C181   1.264       .  A
V179        V180   2.090       .  T
C181        C222   1.443       .  S
C182        C234   1.441       .  S
C183        C208   1.434       .  S
C184        C194   1.434       .  S
C185        C193   1.439       .  S
C185        C186   1.402       .  A
C185        C190   1.401       .  A
C186        C187   1.399       .  A
C186        H195   1.083       .  S
C187        C188   1.402       .  A
C187        H196   1.083       .  S
C188        C191   1.439       .  S
C188        C189   1.401       .  A
C189        C190   1.398       .  A
C189        H197   1.083       .  S
C190        H198   1.083       .  S
C191        C192   1.206       .  T
C193        C194   1.205       .  T
C199        C207   1.439       .  S
C199        C200   1.401       .  A
C199        C204   1.401       .  A
C200        C201   1.399       .  A
C200        H209   1.083       .  S
C201        C202   1.401       .  A
C201        H210   1.083       .  S
C202        C205   1.439       .  S
C202        C203   1.401       .  A
C203        C204   1.399       .  A
C203        H211   1.083       .  S
C204        H212   1.083       .  S
C205        C206   1.205       .  T
C207        C208   1.206       .  T
C213        C221   1.448       .  S
C213        C214   1.403       .  A
C213        C218   1.403       .  A
C214        C215   1.402       .  A
C214        H223   1.083   1_655  S
C215        C216   1.403       .  A
C215        H224   1.083   1_655  S
C216        C219   1.447       .  S
C216        C217   1.403       .  A
C217        C218   1.402       .  A
C217        H225   1.083       .  S
C218        H226   1.083       .  S
C219        C220   1.211       .  T
C221        C222   1.211       .  T
C227        C235   1.446       .  S
C227        C228   1.402   1_655  A
C227        C232   1.402       .  A
C228        C229   1.401       .  A
C228        H237   1.083       .  S
C229        C230   1.402   1_455  A
C229        H238   1.083       .  S
C230        C233   1.446       .  S
C230        C231   1.402       .  A
C231        C232   1.402       .  A
C231        H239   1.083       .  S
C232        H240   1.083       .  S
C233        C234   1.210       .  T
C235        C236   1.210       .  T
C241        C249   1.446       .  S
C241        C242   1.402       .  A
C241        C246   1.402       .  A
C242        C243   1.401       .  A
C242        H251   1.083       .  S
C243        C244   1.402       .  A
C243        H252   1.083       .  S
C244        C247   1.446       .  S
C244        C245   1.402       .  A
C245        C246   1.401       .  A
C245        H253   1.083       .  S
C246        H254   1.083       .  S
C247        C248   1.209       .  T
C249        C250   1.209       .  T
C255        C263   1.446       .  S
C255        C256   1.403       .  A
C255        C260   1.402       .  A
C256        C257   1.402       .  A
C256        H265   1.083       .  S
C257        C258   1.402       .  A
C257        H266   1.083       .  S
C258        C261   1.446       .  S
C258        C259   1.402       .  A
C259        C260   1.401       .  A
C259        H267   1.083       .  S
C260        H268   1.083       .  S
C261        C262   1.210       .  T
C263        C264   1.210       .  T
C269        C277   1.445       .  S
C269        C270   1.402       .  A
C269        C274   1.402       .  A
C270        C271   1.401       .  A
C270        H279   1.083       .  S
C271        C272   1.402       .  A
C271        H280   1.083       .  S
C272        C275   1.446       .  S
C272        C273   1.402       .  A
C273        C274   1.401       .  A
C273        H281   1.083       .  S
C274        H282   1.083       .  S
C275        C276   1.209       .  T
C277        C278   1.209       .  T
C283        C291   1.447       .  S
C283        C284   1.402       .  A
C283        C288   1.403       .  A
C284        C285   1.402       .  A
C284        H293   1.083       .  S
C285        C286   1.403       .  A
C285        H294   1.083       .  S
C286        C289   1.447       .  S
C286        C287   1.402       .  A
C287        C288   1.402       .  A
C287        H295   1.083       .  S
C288        H296   1.083       .  S
C289        C290   1.210       .  T
C291        C292   1.210       .  T
C297        C305   1.441       .  S
C297        C298   1.401       .  A
C297        C302   1.402       .  A
C298        C299   1.399       .  A
C298        H307   1.083       .  S
C299        C300   1.401       .  A
C299        H308   1.083       .  S
C300        C303   1.441       .  S
C300        C301   1.402       .  A
C301        C302   1.400       .  A
C301        H309   1.083       .  S
C302        H310   1.083       .  S
C303        C304   1.206       .  T
C305        C306   1.206       .  T
C311        C319   1.440       .  S
C311        C312   1.402       .  A
C311        C316   1.401       .  A
C312        C313   1.400       .  A
C312        H321   1.083       .  S
C313        C314   1.401       .  A
C313        H322   1.083       .  S
C314        C317   1.440       .  S
C314        C315   1.401       .  A
C315        C316   1.398       .  A
C315        H323   1.083       .  S
C316        H324   1.083       .  S
C317        C318   1.206       .  T
C319        C320   1.206       .  T
C325        C333   1.444       .  S
C325        C326   1.402       .  A
C325        C330   1.402       .  A
C326        C327   1.402       .  A
C326        H335   1.083       .  S
C327        C328   1.402       .  A
C327        H336   1.083       .  S
C328        C331   1.444       .  S
C328        C329   1.402       .  A
C329        C330   1.400       .  A
C329        H337   1.083       .  S
C330        H338   1.083       .  S
C331        C332   1.209       .  T
C333        C334   1.209       .  T
C339        C347   1.443       .  S
C339        C340   1.402       .  A
C339        C344   1.402       .  A
C340        C341   1.400       .  A
C340        H349   1.083       .  S
C341        C342   1.402       .  A
C341        H350   1.083       .  S
C342        C345   1.444       .  S
C342        C343   1.402       .  A
C343        C344   1.401       .  A
C343        H351   1.083       .  S
C344        H352   1.083       .  S
C345        C346   1.208       .  T
C347        C348   1.208       .  T
C353        C361   1.446       .  S
C353        C354   1.402   1_455  A
C353        C358   1.403       .  A
C354        C355   1.401       .  A
C354        H363   1.083       .  S
C355        C356   1.402   1_655  A
C355        H364   1.083       .  S
C356        C359   1.446       .  S
C356        C357   1.402       .  A
C357        C358   1.402       .  A
C357        H365   1.083       .  S
C358        H366   1.083       .  S
C359        C360   1.209       .  T
C361        C362   1.210       .  T
C367        C375   1.446       .  S
C367        C368   1.402       .  A
C367        C372   1.402       .  A
C368        C369   1.401       .  A
C368        H377   1.083   1_455  S
C369        C370   1.402       .  A
C369        H378   1.083   1_455  S
C370        C373   1.446       .  S
C370        C371   1.402       .  A
C371        C372   1.401       .  A
C371        H379   1.083       .  S
C372        H380   1.083       .  S
C373        C374   1.209       .  T
C375        C376   1.210       .  T
C381        C389   1.439       .  S
C381        C382   1.401       .  A
C381        C386   1.401       .  A
C382        C383   1.398       .  A
C382        H391   1.083       .  S
C383        C384   1.401       .  A
C383        H392   1.083       .  S
C384        C387   1.439       .  S
C384        C385   1.401       .  A
C385        C386   1.399       .  A
C385        H393   1.083       .  S
C386        H394   1.083       .  S
C387        C388   1.206       .  T
C389        C390   1.206       .  T
C395        C403   1.440       .  S
C395        C396   1.402       .  A
C395        C400   1.401       .  A
C396        C397   1.400       .  A
C396        H405   1.083       .  S
C397        C398   1.402       .  A
C397        H406   1.083       .  S
C398        C401   1.440       .  S
C398        C399   1.401       .  A
C399        C400   1.398       .  A
C399        H407   1.083       .  S
C400        H408   1.083       .  S
C401        C402   1.206       .  T
C403        C404   1.206       .  T
C409        C417   1.446       .  S
C409        C410   1.403       .  A
C409        C414   1.402       .  A
C410        C411   1.402       .  A
C410        H419   1.083       .  S
C411        C412   1.403       .  A
C411        H420   1.083       .  S
C412        C415   1.447       .  S
C412        C413   1.402       .  A
C413        C414   1.401       .  A
C413        H421   1.083       .  S
C414        H422   1.083       .  S
C415        C416   1.210       .  T
C417        C418   1.210       .  T
C423        C431   1.445       .  S
C423        C424   1.402       .  A
C423        C428   1.402       .  A
C424        C425   1.401       .  A
C424        H433   1.083       .  S
C425        C426   1.402       .  A
C425        H434   1.083       .  S
C426        C429   1.445       .  S
C426        C427   1.402       .  A
C427        C428   1.401       .  A
C427        H435   1.083       .  S
C428        H436   1.083       .  S
C429        C430   1.209       .  T
C431        C432   1.209       .  T
C437        C445   1.445       .  S
C437        C438   1.403       .  A
C437        C442   1.402   1_455  A
C438        C439   1.402       .  A
C438        H447   1.083       .  S
C439        C440   1.403       .  A
C439        H448   1.083       .  S
C440        C443   1.445       .  S
C440        C441   1.402   1_455  A
C441        C442   1.400       .  A
C441        H449   1.083       .  S
C442        H450   1.083       .  S
C443        C444   1.209       .  T
C445        C446   1.209       .  T
C451        C459   1.446       .  S
C451        C452   1.402       .  A
C451        C456   1.403   1_455  A
C452        C453   1.401       .  A
C452        H461   1.083       .  S
C453        C454   1.402       .  A
C453        H462   1.083       .  S
C454        C457   1.446       .  S
C454        C455   1.402   1_455  A
C455        C456   1.402       .  A
C455        H463   1.083       .  S
C456        H464   1.083       .  S
C457        C458   1.210   1_455  T
C459        C460   1.210       .  T
C465        C473   1.440       .  S
C465        C466   1.401       .  A
C465        C470   1.401       .  A
C466        C467   1.399       .  A
C466        H475   1.083       .  S
C467        C468   1.401       .  A
C467        H476   1.083       .  S
C468        C471   1.440       .  S
C468        C469   1.401       .  A
C469        C470   1.399       .  A
C469        H477   1.083       .  S
C470        H478   1.083       .  S
C471        C472   1.206       .  T
C473        C474   1.206       .  T
C479        C487   1.440       .  S
C479        C480   1.401       .  A
C479        C484   1.402       .  A
C480        C481   1.399       .  A
C480        H489   1.083       .  S
C481        C482   1.401       .  A
C481        H490   1.083       .  S
C482        C485   1.440       .  S
C482        C483   1.402       .  A
C483        C484   1.399       .  A
C483        H491   1.083       .  S
C484        H492   1.083       .  S
C485        C486   1.206       .  T
C487        C488   1.206       .  T
C493        C501   1.445       .  S
C493        C494   1.402       .  A
C493        C498   1.402       .  A
C494        C495   1.401       .  A
C494        H503   1.083       .  S
C495        C496   1.402       .  A
C495        H504   1.083       .  S
C496        C499   1.445       .  S
C496        C497   1.402       .  A
C497        C498   1.401       .  A
C497        H505   1.083       .  S
C498        H506   1.083       .  S
C499        C500   1.209       .  T
C501        C502   1.209       .  T
C507        C515   1.445       .  S
C507        C508   1.402       .  A
C507        C512   1.402       .  A
C508        C509   1.402       .  A
C508        H517   1.083       .  S
C509        C510   1.403       .  A
C509        H518   1.083       .  S
C510        C513   1.445       .  S
C510        C511   1.402       .  A
C511        C512   1.401       .  A
C511        H519   1.083       .  S
C512        H520   1.083       .  S
C513        C514   1.209       .  T
C515        C516   1.209       .  T
