geometry optimzed in LAMMPS
_audit_creation_date              2020-12-01 
_audit_creation_method            'lammps2cif' 
_symmetry_space_group_name_H-M    'P1' 
_symmetry_Int_Tables_number       1 
_symmetry_cell_setting            triclinic 
loop_ 
_symmetry_equiv_pos_as_xyz 
  x,y,z 
_cell_length_a                    80.27223882 
_cell_length_b                    80.13528794885637 
_cell_length_c                    35.7714410081478 
_cell_angle_alpha                 85.12642150071362 
_cell_angle_beta                  94.35182302919955 
_cell_angle_gamma                 119.88636813509655 
loop_ 
_atom_site_label 
_atom_site_type_symbol 
_atom_site_fract_x 
_atom_site_fract_y 
_atom_site_fract_z 
_atom_site_charge 
N1          N  0.09829632  0.54875200  0.32290383    -0.25600
N2          N  0.11459583  0.55804186  0.30521537    -0.33400
C3          C  0.12926959  0.56635992  0.33032087     0.02800
C4          C  0.12195433  0.56205057  0.36578975     0.08800
C5          C  0.10221071  0.55070455  0.36018427    -0.04300
H6          H  0.14422870  0.57485064  0.32327311     0.09500
H7          H  0.09151795  0.54473846  0.38141237     0.10700
Cu8        Cu  0.11610301  0.55877933  0.24777246     0.44200
Cu9        Cu  0.07215483  0.53506802  0.29285428     0.42000
Cu10       Cu  0.07318830  0.53667085  0.18794521     0.43900
N11         N  0.11658483  0.55849289  0.19030098    -0.33000
N12         N  0.10119099  0.55095677  0.16739785    -0.27200
C13         C  0.10711076  0.55366999  0.13184201    -0.03300
C14         C  0.12711518  0.56309181  0.13297333     0.08900
C15         C  0.13249582  0.56583669  0.17044538     0.02700
H16         H  0.09762495  0.54871719  0.10720888     0.10400
H17         H  0.14700534  0.57270769  0.18250462     0.09400
N18         N  0.04807230  0.52373745  0.21920517    -0.34400
N19         N  0.04808736  0.52345594  0.25633348    -0.26600
C20         C  0.02985134  0.51462482  0.26729935    -0.01800
C21         C  0.01758586  0.50894606  0.23592458     0.06800
C22         C  0.02961568  0.51491149  0.20584392     0.04900
H23         H  0.02584929  0.51264554  0.29621601     0.10000
H24         H  0.02528382  0.51319288  0.17640393     0.08800
N25         N  0.18309040  0.58831514  0.01926280    -0.01700
C26         C  0.20232899  0.59491620  0.02488377     0.00800
C27         C  0.21040926  0.59487402  0.49242470    -0.22000
C28         C  0.19647828  0.59092615  0.46467745    -0.22200
C29         C  0.17970913  0.58585184  0.48213995     0.00700
H30         H  0.22544199  0.59985679  0.48846498     0.14500
H31         H  0.19836798  0.59178827  0.43479902     0.14600
N32         N  0.91067986  0.46213574  0.16517666    -0.25600
N33         N  0.89570861  0.45871974  0.18429738    -0.33400
C34         C  0.87971335  0.45071229  0.16174568     0.02800
C35         C  0.88473233  0.44875724  0.12678118     0.08800
C36         C  0.90451584  0.45621672  0.13011997    -0.04300
H37         H  0.86532505  0.44559978  0.17083658     0.09500
H38         H  0.91373630  0.45687702  0.10883212     0.10700
Cu39       Cu  0.89720367  0.46234200  0.24178996     0.44200
Cu40       Cu  0.93884430  0.47359595  0.18808123     0.42000
Cu41       Cu  0.94325968  0.47639075  0.28916311     0.43900
N42         N  0.90128951  0.46164660  0.30009291    -0.33000
N43         N  0.91797241  0.46586587  0.31740210    -0.27200
C44         C  0.91528856  0.46123891  0.35441712    -0.03300
C45         C  0.89605579  0.45411729  0.36077231     0.08900
C46         C  0.88762790  0.45455735  0.32574466     0.02700
H47         H  0.92636921  0.46235683  0.37493190     0.10400
H48         H  0.87244483  0.44888344  0.31910330     0.09400
N49         N  0.96661661  0.48620927  0.25529055    -0.34400
N50         N  0.96528842  0.48520819  0.21836977    -0.26600
C51         C  0.98318993  0.49299977  0.20542721    -0.01800
C52         C  0.99632275  0.49918294  0.23571896     0.06800
C53         C  0.98523380  0.49460703  0.26675708     0.04900
H54         H  0.98640622  0.49420432  0.17617190     0.10000
H55         H  0.99031046  0.49730834  0.29568879     0.08800
N56         N  0.83449439  0.40861641  0.00159599    -0.01700
C57         C  0.81559208  0.39468418  0.00167930     0.00800
C58         C  0.81067561  0.38508525  0.46980963    -0.22000
C59         C  0.82677949  0.39273492  0.44910372    -0.22200
C60         C  0.84123091  0.40750320  0.46901271     0.00700
H61         H  0.79643366  0.37389526  0.46148823     0.14500
H62         H  0.82754755  0.38885244  0.42128902     0.14600
N63         N  0.54989021  0.09561502  0.12459811    -0.25600
N64         N  0.56245455  0.10985410  0.14533227    -0.33400
C65         C  0.57247077  0.12574729  0.12293921     0.02800
C66         C  0.56595902  0.12161072  0.08608045     0.08800
C67         C  0.55153538  0.10232995  0.08828755    -0.04300
H68         H  0.58333005  0.13954006  0.13298361     0.09500
H69         H  0.54297370  0.09377268  0.06511568     0.10700
Cu70       Cu  0.56466739  0.10797679  0.20370035     0.44200
Cu71       Cu  0.53132773  0.06756912  0.14775006     0.42000
Cu72       Cu  0.52978892  0.06473906  0.25049735     0.43900
N73         N  0.56176943  0.10498928  0.26154530    -0.33000
N74         N  0.54829978  0.08929870  0.27880836    -0.27200
C75         C  0.54849744  0.09268354  0.31516389    -0.03300
C76         C  0.56304548  0.11130448  0.32110393     0.08900
C77         C  0.57101308  0.11870842  0.28646729     0.02700
H78         H  0.53822229  0.08270475  0.33523727     0.10400
H79         H  0.58178945  0.13343476  0.27934961     0.09400
N80         N  0.51529425  0.04107614  0.21759714    -0.34400
N81         N  0.51584790  0.04156587  0.18059013    -0.26600
C82         C  0.50605597  0.02320224  0.16963236    -0.01800
C83         C  0.49911865  0.01072435  0.20128740     0.06800
C84         C  0.50524560  0.02268062  0.23094800     0.04900
H85         H  0.50455472  0.01919285  0.14093634     0.10000
H86         H  0.50316484  0.01831809  0.26045557     0.08800
N87         N  0.59151403  0.17568221  0.95680686    -0.01700
C88         C  0.60201509  0.19532449  0.95598691     0.00800
C89         C  0.60226161  0.20288425  0.41896433    -0.22000
C90         C  0.59271372  0.18768290  0.39638366    -0.22200
C91         C  0.58604894  0.17117011  0.41965300     0.00700
H92         H  0.60943410  0.21800485  0.40986039     0.14500
H93         H  0.59123655  0.18852880  0.36605413     0.14600
N94         N  0.45251703  0.90966619  0.30168639    -0.25600
N95         N  0.44532615  0.89306678  0.28566431    -0.33400
C96         C  0.43996810  0.87869195  0.31225261     0.02800
C97         C  0.44374448  0.88640243  0.34702265     0.08800
C98         C  0.45164218  0.90615744  0.33940373    -0.04300
H99         H  0.43382952  0.86364061  0.30667545     0.09500
H100        H  0.45685322  0.91713155  0.35967981     0.10700
Cu101      Cu  0.44340462  0.89043153  0.22832958     0.44200
Cu102      Cu  0.46385597  0.93567720  0.26884188     0.42000
Cu103      Cu  0.46446824  0.93242262  0.16500985     0.43900
N104        N  0.44315580  0.88893054  0.17090301    -0.33000
N105        N  0.45145724  0.90411312  0.14714789    -0.27200
C106        C  0.44909222  0.89783579  0.11219397    -0.03300
C107        C  0.43854694  0.87780242  0.11432550     0.08900
C108        C  0.43506369  0.87275417  0.15195382     0.02700
H109        H  0.45419897  0.90712042  0.08702925     0.10400
H110        H  0.42731229  0.85831657  0.16473778     0.09400
N111        N  0.47508603  0.95826605  0.19241568    -0.34400
N112        N  0.47473597  0.95919031  0.22918447    -0.26600
C113        C  0.48289284  0.97781408  0.23732721    -0.01800
C114        C  0.48871769  0.98930500  0.20443961     0.06800
C115        C  0.48349179  0.97639127  0.17648270     0.04900
H116        H  0.48468543  0.98265037  0.26542756     0.10000
H117        H  0.48587254  0.97991653  0.14679248     0.08800
N118        N  0.41217084  0.82326411  0.99866999    -0.01700
C119        C  0.40065970  0.80372181  0.00264938     0.00800
C120        C  0.39564711  0.79535918  0.46776919    -0.22000
C121        C  0.40592058  0.81010058  0.44228662    -0.22200
C122        C  0.41504405  0.82680272  0.46158307     0.00700
H123        H  0.38693406  0.78026513  0.46201905     0.14500
H124        H  0.40649035  0.80883900  0.41258036     0.14600
N125        N  0.36252490  0.70959031  0.12773267    -0.25600
N126        N  0.34568175  0.70885897  0.12718993    -0.33400
C127        C  0.34790575  0.72617705  0.11502679     0.02800
C128        C  0.36704045  0.73856877  0.10675219     0.08800
C129        C  0.37585486  0.72744715  0.11549047    -0.04300
H130        H  0.33613702  0.72914954  0.11099818     0.09500
H131        H  0.39061983  0.73160511  0.11088543     0.10700
Cu132      Cu  0.31955699  0.68369070  0.13642374     0.44200
Cu133      Cu  0.36604608  0.68552447  0.14178358     0.42000
Cu134      Cu  0.32186438  0.64088351  0.16424404     0.43900
N135        N  0.29523839  0.65634225  0.13904864    -0.33000
N136        N  0.29609846  0.64065725  0.15029302    -0.27200
C137        C  0.27871795  0.62509965  0.14443351    -0.03300
C138        C  0.26617531  0.63111972  0.12802218     0.08900
C139        C  0.27729401  0.65113238  0.12540152     0.02700
H140        H  0.27590112  0.61046050  0.14965914     0.10400
H141        H  0.27318798  0.66112321  0.11143147     0.09400
N142        N  0.34877827  0.64293196  0.16454661    -0.34400
N143        N  0.36481777  0.65895986  0.15579489    -0.26600
C144        C  0.37899836  0.65466931  0.15420652    -0.01800
C145        C  0.37156179  0.63498284  0.16207994     0.06800
C146        C  0.35233756  0.62812559  0.16861541     0.04900
H147        H  0.39334193  0.66489717  0.14528625     0.10000
H148        H  0.34142705  0.61328018  0.17413876     0.08800
N149        N  0.44745939  0.53796291  0.28044852    -0.25600
N150        N  0.43538903  0.54043236  0.29939011    -0.33400
C151        C  0.42638378  0.54768178  0.27571755     0.02800
C152        C  0.43308426  0.55010397  0.23990103     0.08800
C153        C  0.44637809  0.54362820  0.24414828    -0.04300
H154        H  0.41659098  0.55205027  0.28450933     0.09500
H155        H  0.45506893  0.54352077  0.22260760     0.10700
Cu156      Cu  0.43387276  0.53687314  0.35765189     0.44200
Cu157      Cu  0.46637999  0.52883146  0.30595629     0.42000
Cu158      Cu  0.47194432  0.53149772  0.40744309     0.43900
N159        N  0.43920465  0.53908207  0.41544122    -0.33000
N160        N  0.45388755  0.53832357  0.43323060    -0.27200
C161        C  0.45528843  0.54337204  0.46879172    -0.03300
C162        C  0.44059716  0.54720159  0.47384501     0.08900
C163        C  0.43068995  0.54430410  0.43941499     0.02700
H164        H  0.46660640  0.54487075  0.48903615     0.10400
H165        H  0.41910861  0.54728617  0.43155482     0.09400
N166        N  0.48638845  0.52215551  0.37651570    -0.34400
N167        N  0.48433120  0.52086149  0.33962441    -0.26600
C168        C  0.49494515  0.51336487  0.32907780    -0.01800
C169        C  0.50403788  0.50975493  0.36083733     0.06800
C170        C  0.49826452  0.51557346  0.39027632     0.04900
H171        H  0.49572970  0.51044415  0.30048319     0.10000
H172        H  0.50208052  0.51470792  0.41975516     0.08800
N173        N  0.41780793  0.58866805  0.10802127    -0.01700
C174        C  0.41102340  0.60137133  0.10545831     0.00800
C175        C  0.41318734  0.61009617  0.06980244    -0.22000
C176        C  0.42143164  0.60270396  0.04933930    -0.22200
C177        C  0.42405078  0.58962097  0.07301650     0.00700
H178        H  0.40864586  0.62036038  0.05950760     0.14500
H179        H  0.42445460  0.60589286  0.01980239     0.14600
N180        N  0.56748436  0.46677510  0.44727146    -0.25600
N181        N  0.57820098  0.46200098  0.42933696    -0.33400
C182        C  0.58593799  0.45389107  0.45418341     0.02800
C183        C  0.57971087  0.45325788  0.48962492     0.08800
C184        C  0.56805059  0.46161845  0.48405438    -0.04300
H185        H  0.59426370  0.44753974  0.44654854     0.09500
H186        H  0.55989562  0.46308854  0.50500298     0.10700
Cu187      Cu  0.57902083  0.46336338  0.37108941     0.44200
Cu188      Cu  0.55086768  0.47823067  0.41987083     0.42000
Cu189      Cu  0.54531677  0.47501357  0.31866167     0.43900
N190        N  0.57342311  0.46074836  0.31346890    -0.33000
N191        N  0.56040970  0.46405536  0.29473636    -0.27200
C192        C  0.55848080  0.45867964  0.25929403    -0.03300
C193        C  0.57111243  0.45197484  0.25536916     0.08900
C194        C  0.58033423  0.45348154  0.29024733     0.02700
H195        H  0.54828810  0.45915002  0.23823965     0.10400
H196        H  0.59043429  0.44852122  0.29873723     0.09400
N197        N  0.53285984  0.48690704  0.34835647    -0.34400
N198        N  0.53486371  0.48827050  0.38522463    -0.26600
C199        C  0.52505365  0.49671617  0.39530822    -0.01800
C200        C  0.51649418  0.50083731  0.36329760     0.06800
C201        C  0.52180758  0.49439746  0.33413104     0.04900
H202        H  0.52412445  0.49955507  0.42388238     0.10000
H203        H  0.51787380  0.49502948  0.30465443     0.08800
N204        N  0.58601032  0.40796133  0.11866654    -0.01700
C205        C  0.59011814  0.39338716  0.11834900     0.00800
C206        C  0.58458896  0.38194529  0.15122042    -0.22000
C207        C  0.57689856  0.38957495  0.17269382    -0.22200
C208        C  0.57802081  0.40548690  0.15235332     0.00700
H209        H  0.58717058  0.37011486  0.15975071     0.14500
H210        H  0.57233720  0.38491737  0.20123617     0.14600
N211        N  0.64344268  0.29362175  0.04275903    -0.25600
N212        N  0.65947079  0.29318541  0.05222737    -0.33400
C213        C  0.65627872  0.27520467  0.04897881     0.02800
C214        C  0.63734983  0.26363598  0.03646567     0.08800
C215        C  0.62969394  0.27592420  0.03301119    -0.04300
H216        H  0.66724313  0.27111690  0.05413084     0.09500
H217        H  0.61548499  0.27257236  0.02213629     0.10700
Cu218      Cu  0.68588897  0.31756113  0.06361435     0.44200
Cu219      Cu  0.64138877  0.31864004  0.04127410     0.42000
Cu220      Cu  0.68660185  0.36303656  0.05550026     0.43900
N221        N  0.71123076  0.34411687  0.06461358    -0.33000
N222        N  0.71150483  0.36079608  0.06138424    -0.27200
C223        C  0.72986854  0.37514685  0.05904730    -0.03300
C224        C  0.74190069  0.36721631  0.06046798     0.08900
C225        C  0.72940304  0.34743798  0.06417782     0.02700
H226        H  0.73398634  0.39021909  0.05517818     0.10400
H227        H  0.73306226  0.33616955  0.06376807     0.09400
N228        N  0.65979377  0.36150128  0.05037393    -0.34400
N229        N  0.64333116  0.34539195  0.04536406    -0.26600
C230        C  0.62874500  0.34903813  0.04722840    -0.01800
C231        C  0.63629569  0.36838505  0.05388099     0.06800
C232        C  0.65608586  0.37577874  0.05536283     0.04900
H233        H  0.61372651  0.33806915  0.04654066     0.10000
H234        H  0.66707771  0.39031558  0.06122158     0.08800
C235        C  0.60658134  0.37190879  0.05029082     0.25300
C236        C  0.62550950  0.37790000  0.06450604    -0.22800
C237        C  0.63338830  0.39188391  0.09172107     0.20200
C238        C  0.62229053  0.39874855  0.10586652     0.25300
C239        C  0.60308152  0.39187287  0.09332981    -0.22700
C240        C  0.59544057  0.37873450  0.06483757     0.20200
F241        F  0.57671600  0.37137242  0.05324130    -0.12700
F242        F  0.59854621  0.35883886  0.02340466    -0.15100
F243        F  0.62970230  0.41069126  0.13476450    -0.15100
F244        F  0.65118201  0.39759197  0.10757106    -0.12700
C245        C  0.55579460  0.42607296  0.20951888     0.25300
C246        C  0.57232030  0.44221230  0.22331322    -0.22800
C247        C  0.59025118  0.44772768  0.20884732     0.20200
C248        C  0.59174300  0.43682754  0.18202282     0.25300
C249        C  0.57542557  0.41992489  0.17027499    -0.22700
C250        C  0.55740027  0.41479370  0.18374588     0.20200
F251        F  0.54155425  0.39816317  0.17378658    -0.12700
F252        F  0.53835065  0.42025611  0.22347821    -0.15100
F253        F  0.60937317  0.44173838  0.17020119    -0.15100
F254        F  0.60641688  0.46322500  0.22185423    -0.12700
C255        C  0.56723180  0.41939357  0.07731430     0.25300
C256        C  0.58482891  0.41989745  0.08689182    -0.22800
C257        C  0.60072006  0.43191672  0.06477197     0.20200
C258        C  0.59889264  0.44291405  0.03348046     0.25300
C259        C  0.58192976  0.44250440  0.52401950    -0.22700
C260        C  0.56592867  0.43042315  0.54573779     0.20200
F261        F  0.54846233  0.42865226  0.53605170    -0.12700
F262        F  0.55133142  0.40683254  0.59514686    -0.15100
F263        F  0.61449265  0.45434311  0.01269261    -0.15100
F264        F  0.61807889  0.43334725  0.07380871    -0.12700
C265        C  0.45401140  0.57351073  0.51889565     0.25300
C266        C  0.43834943  0.55646461  0.50574874    -0.22800
C267        C  0.42015153  0.54962243  0.52041861     0.20200
C268        C  0.41656669  0.55745159  0.05287818     0.25300
C269        C  0.43014268  0.57686963  0.05820642    -0.22700
C270        C  0.45121937  0.58428439  0.54403395     0.20200
F271        F  0.46611730  0.60180228  0.55277920    -0.12700
F272        F  0.47164804  0.58074005  0.50460261    -0.15100
F273        F  0.39938949  0.54911668  0.06956295    -0.15100
F274        F  0.40477309  0.53323433  0.50808637    -0.12700
C275        C  0.40683886  0.56778717  0.16719027     0.25300
C276        C  0.42129114  0.57903154  0.14146930    -0.22800
C277        C  0.43955841  0.58073200  0.14874062     0.20200
C278        C  0.44320340  0.57113702  0.18008658     0.25300
C279        C  0.42880894  0.55981627  0.20584299    -0.22700
C280        C  0.41059318  0.55843649  0.19916647     0.20200
F281        F  0.39618906  0.54760734  0.22302493    -0.12700
F282        F  0.38890110  0.56530357  0.16091517    -0.15100
F283        F  0.46120459  0.57368258  0.18590971    -0.15100
F284        F  0.45425392  0.59231912  0.12603220    -0.12700
C285        C  0.40101487  0.63116744  0.16465852     0.25300
C286        C  0.38113706  0.62349756  0.15674676    -0.22800
C287        C  0.37091897  0.60561115  0.13994883     0.20200
C288        C  0.38063998  0.59664042  0.12819282     0.25300
C289        C  0.40071887  0.60513768  0.13326812    -0.22700
C290        C  0.41069750  0.62207258  0.15296964     0.20200
F291        F  0.43014463  0.63090789  0.15728396    -0.12700
F292        F  0.41128645  0.64804204  0.18190093    -0.15100
F293        F  0.37074463  0.58086078  0.10752130    -0.15100
F294        F  0.35185400  0.59778056  0.13095761    -0.12700
C295        C  0.40345177  0.78809996  0.06493705     0.25300
C296        C  0.39202536  0.79148459  0.03707205    -0.22800
C297        C  0.37205490  0.77894248  0.03616771     0.20200
C298        C  0.36380823  0.76236367  0.06012395     0.25300
C299        C  0.37536850  0.75790204  0.08602281    -0.22700
C300        C  0.39520219  0.77146223  0.08927852     0.20200
F301        F  0.40677790  0.76825218  0.11495035    -0.12700
F302        F  0.42279423  0.79995157  0.06641327    -0.15100
F303        F  0.34473695  0.74986583  0.05510808    -0.15100
F304        F  0.36066183  0.78185184  0.00945842    -0.12700
C305        C  0.44108166  0.84802938  0.41844726     0.25300
C306        C  0.42666351  0.84584646  0.44162369    -0.22800
C307        C  0.42050062  0.85957580  0.43776024     0.20200
C308        C  0.42745584  0.87422102  0.40886112     0.25300
C309        C  0.44047995  0.87511659  0.38344665    -0.22700
C310        C  0.44784130  0.86243116  0.38959939     0.20200
F311        F  0.46067726  0.86316521  0.36594527    -0.12700
F312        F  0.44742327  0.83508548  0.42173877    -0.15100
F313        F  0.42000111  0.88620561  0.40336199    -0.15100
F314        F  0.40631721  0.85759054  0.45921971    -0.12700
C315        C  0.44472361  0.86483542  0.05862335     0.25300
C316        C  0.43175352  0.86432326  0.08355179    -0.22800
C317        C  0.41225659  0.85012302  0.08017700     0.20200
C318        C  0.40578210  0.83684515  0.05206582     0.25300
C319        C  0.41878001  0.83707997  0.02748287    -0.22700
C320        C  0.43835213  0.85117227  0.03121284     0.20200
F321        F  0.45143489  0.85130148  0.00913076    -0.12700
F322        F  0.46371222  0.87803173  0.06189231    -0.15100
F323        F  0.38670765  0.82409555  0.04824548    -0.15100
F324        F  0.39936577  0.84938356  0.10367969    -0.12700
C325        C  0.63068317  0.21962998  0.99003432     0.25300
C326        C  0.61057280  0.20814228  0.98765880    -0.22800
C327        C  0.59937788  0.21379161  0.00566223     0.20200
C328        C  0.60811430  0.23132560  0.02352540     0.25300
C329        C  0.62824425  0.24360589  0.02341656    -0.22700
C330        C  0.63944564  0.23714086  0.00758016     0.20200
F331        F  0.65876757  0.24855911  0.00543483    -0.12700
F332        F  0.64109799  0.21502729  0.46808822    -0.15100
F333        F  0.59676384  0.23667229  0.03933266    -0.15100
F334        F  0.57989893  0.20329225  0.00269778    -0.12700
C335        C  0.58710360  0.14190934  0.40430413     0.25300
C336        C  0.57686967  0.15193078  0.40407371    -0.22800
C337        C  0.56039544  0.14631202  0.38029862     0.20200
C338        C  0.55494587  0.13178083  0.35537849     0.25300
C339        C  0.56604363  0.12283735  0.35346612    -0.22700
C340        C  0.58177601  0.12749328  0.37888888     0.20200
F341        F  0.59274334  0.11906014  0.37723541    -0.12700
F342        F  0.60339647  0.14748682  0.42616385    -0.15100
F343        F  0.53982151  0.12762235  0.33077803    -0.15100
F344        F  0.55055773  0.15608850  0.37899579    -0.12700
C345        C  0.55944635  0.13512765  0.02386479     0.25300
C346        C  0.57265043  0.13528459  0.05227587    -0.22800
C347        C  0.59228942  0.14906450  0.04863423     0.20200
C348        C  0.59851647  0.16229349  0.01737885     0.25300
C349        C  0.58525361  0.16222185  0.98927523    -0.22700
C350        C  0.56566503  0.14850497  0.99292383     0.20200
F351        F  0.55241238  0.14844487  0.96695594    -0.12700
F352        F  0.54036438  0.12250715  0.02670634    -0.15100
F353        F  0.61758666  0.17479054  0.01400210    -0.15100
F354        F  0.60558687  0.14938559  0.07482456    -0.12700
C355        C  0.79282634  0.37668121  0.55216922     0.25300
C356        C  0.80062013  0.39210699  0.02695412    -0.22800
C357        C  0.78993576  0.40140215  0.01633441     0.20200
C358        C  0.77134440  0.39409751  0.02906364     0.25300
C359        C  0.76287254  0.37711976  0.05261659    -0.22700
C360        C  0.77416754  0.36934692  0.56475387     0.20200
F361        F  0.76678475  0.35328708  0.58817916    -0.12700
F362        F  0.80242436  0.36689684  0.56181869    -0.15100
F363        F  0.76109368  0.40266584  0.01512454    -0.15100
F364        F  0.79669083  0.41637023  0.99019642    -0.12700
C365        C  0.88486671  0.42747732  0.41075811     0.25300
C366        C  0.88569157  0.44461413  0.39552555    -0.22800
C367        C  0.87435900  0.45108347  0.41045699     0.20200
C368        C  0.86141655  0.43993828  0.43847135     0.25300
C369        C  0.85926349  0.42192077  0.45114165    -0.22700
C370        C  0.87150367  0.41604374  0.43796174     0.20200
F371        F  0.86946669  0.39854173  0.44933305    -0.12700
F372        F  0.89565784  0.42090836  0.39674308    -0.15100
F373        F  0.84949885  0.44573294  0.45019195    -0.15100
F374        F  0.87505225  0.46767429  0.39632380    -0.12700
C375        C  0.85545418  0.44073755  0.08379461     0.25300
C376        C  0.87158014  0.43857277  0.09457310    -0.22800
C377        C  0.87494093  0.42622781  0.07461162     0.20200
C378        C  0.86258047  0.41633264  0.04471854     0.25300
C379        C  0.84668315  0.41872877  0.03332712    -0.22700
C380        C  0.84321816  0.43103645  0.05322509     0.20200
F381        F  0.82840422  0.43416093  0.04244934    -0.12700
F382        F  0.85186443  0.45270204  0.10211299    -0.15100
F383        F  0.86591417  0.40444128  0.52841230    -0.15100
F384        F  0.88983354  0.42310398  0.08489490    -0.12700
C385        C  0.22596418  0.59224154  0.07007978     0.25300
C386        C  0.21401763  0.60022690  0.06049919    -0.22800
C387        C  0.21757676  0.61677117  0.07802492     0.20200
C388        C  0.23384426  0.62613363  0.10218597     0.25300
C389        C  0.24691053  0.61914068  0.10907559    -0.22700
C390        C  0.24217321  0.60149558  0.09407671     0.20200
F391        F  0.25406962  0.59397034  0.09942873    -0.12700
F392        F  0.22138140  0.57292480  0.55693827    -0.15100
F393        F  0.23725655  0.64255539  0.11737210    -0.15100
F394        F  0.20640059  0.62492927  0.06888924    -0.12700
C395        C  0.13220921  0.55567910  0.43117740     0.25300
C396        C  0.13347685  0.56875773  0.40113649    -0.22800
C397        C  0.14784158  0.58817499  0.40270817     0.20200
C398        C  0.16171104  0.59410778  0.43198988     0.25300
C399        C  0.16160426  0.58073528  0.46015515    -0.22700
C400        C  0.14630082  0.56164409  0.46055581     0.20200
F401        F  0.14605402  0.54842165  0.48720757    -0.12700
F402        F  0.11852712  0.53680827  0.43018500    -0.15100
F403        F  0.17621453  0.61269883  0.43132387    -0.15100
F404        F  0.14908078  0.60123306  0.37465821    -0.12700
C405        C  0.15428829  0.56258646  0.10446133     0.25300
C406        C  0.14046789  0.56856946  0.10202468    -0.22800
C407        C  0.14077756  0.58113164  0.07185463     0.20200
C408        C  0.15499789  0.58796509  0.04508204     0.25300
C409        C  0.16880371  0.58189129  0.04742510    -0.22700
C410        C  0.16811545  0.56894425  0.07719181     0.20200
F411        F  0.18059223  0.56208758  0.07944666    -0.12700
F412        F  0.15423849  0.55033536  0.13316890    -0.15100
F413        F  0.15572564  0.60109274  0.01773003    -0.15100
F414        F  0.12790841  0.58752233  0.06934620    -0.12700
N415        N  0.09823580  0.54808188  0.82271941    -0.25600
N416        N  0.11439850  0.55845269  0.80488534    -0.33400
C417        C  0.12901118  0.56712538  0.82997111     0.02800
C418        C  0.12181274  0.56191474  0.86556988     0.08800
C419        C  0.10220306  0.54967319  0.86005399    -0.04300
H420        H  0.14385419  0.57649648  0.82281678     0.09500
H421        H  0.09160050  0.54290096  0.88140639     0.10700
Cu422      Cu  0.11582469  0.56007313  0.74725218     0.44200
Cu423      Cu  0.07207786  0.53376445  0.79284621     0.42000
Cu424      Cu  0.07289394  0.53710734  0.68778797     0.43900
N425        N  0.11622450  0.55971403  0.68974392    -0.33000
N426        N  0.10079746  0.55174332  0.66701782    -0.27200
C427        C  0.10663826  0.55407140  0.63150156    -0.03300
C428        C  0.12663583  0.56373626  0.63247642     0.08900
C429        C  0.13209718  0.56699172  0.66979727     0.02700
H430        H  0.09711163  0.54856835  0.60708366     0.10400
H431        H  0.14662978  0.57396876  0.68173447     0.09400
N432        N  0.04788112  0.52361922  0.71920781    -0.34400
N433        N  0.04792077  0.52260117  0.75641214    -0.26600
C434        C  0.02968035  0.51354630  0.76743839    -0.01800
C435        C  0.01741838  0.50850654  0.73599844     0.06800
C436        C  0.02943663  0.51507858  0.70584381     0.04900
H437        H  0.02567224  0.51101124  0.79643149     0.10000
H438        H  0.02510888  0.51397074  0.67636255     0.08800
N439        N  0.18276088  0.58651692  0.52008978    -0.01700
C440        C  0.20179095  0.59216876  0.52608042     0.00800
C441        C  0.21100326  0.59843444  0.99100162    -0.22000
C442        C  0.19687791  0.59401249  0.96348231    -0.22200
C443        C  0.17994798  0.58784409  0.98131231     0.00700
H444        H  0.22614560  0.60413335  0.98678029     0.14500
H445        H  0.19872228  0.59519583  0.93353002     0.14600
N446        N  0.91076132  0.46333175  0.66480226    -0.25600
N447        N  0.89580148  0.45997352  0.68389921    -0.33400
C448        C  0.87982255  0.45204517  0.66127369     0.02800
C449        C  0.88485366  0.45007358  0.62632795     0.08800
C450        C  0.90461563  0.45745563  0.62972837    -0.04300
H451        H  0.86542515  0.44690647  0.67034282     0.09500
H452        H  0.91381804  0.45799368  0.60853077     0.10700
Cu453      Cu  0.89725124  0.46329453  0.74156096     0.44200
Cu454      Cu  0.93884992  0.47437993  0.68774901     0.42000
Cu455      Cu  0.94295402  0.47531747  0.78888642     0.43900
N456        N  0.90125059  0.46194560  0.79988927    -0.33000
N457        N  0.91774145  0.46532876  0.81704350    -0.27200
C458        C  0.91495406  0.46042236  0.85394793    -0.03300
C459        C  0.89586841  0.45399163  0.86046553     0.08900
C460        C  0.88762525  0.45514046  0.82558914     0.02700
H461        H  0.92585310  0.46089891  0.87427410     0.10400
H462        H  0.87253642  0.45010161  0.81902705     0.09400
N463        N  0.96642148  0.48549545  0.75521368    -0.34400
N464        N  0.96519460  0.48525251  0.71816167    -0.26600
C465        C  0.98312008  0.49325035  0.70526440    -0.01800
C466        C  0.99616621  0.49876973  0.73573810     0.06800
C467        C  0.98500526  0.49359425  0.76683518     0.04900
H468        H  0.98641224  0.49506511  0.67592697     0.10000
H469        H  0.99001332  0.49573598  0.79590029     0.08800
N470        N  0.83469207  0.40923939  0.50168672    -0.01700
C471        C  0.81577667  0.39536368  0.50180208     0.00800
C472        C  0.81046887  0.38464254  0.96936531    -0.22000
C473        C  0.82653577  0.39249564  0.94849942    -0.22200
C474        C  0.84099371  0.40714714  0.96862738     0.00700
H475        H  0.79622256  0.37350280  0.96093037     0.14500
H476        H  0.82727214  0.38882594  0.92047141     0.14600
N477        N  0.55109146  0.09544871  0.62400235    -0.25600
N478        N  0.56347424  0.10977917  0.64474431    -0.33400
C479        C  0.57342699  0.12567288  0.62229886     0.02800
C480        C  0.56703595  0.12142180  0.58542547     0.08800
C481        C  0.55278507  0.10208421  0.58766088    -0.04300
H482        H  0.58404987  0.13956562  0.63232030     0.09500
H483        H  0.54427352  0.09346777  0.56451741     0.10700
Cu484      Cu  0.56521701  0.10806788  0.70316718     0.44200
Cu485      Cu  0.53241308  0.06747759  0.64710517     0.42000
Cu486      Cu  0.52947920  0.06502257  0.74941474     0.43900
N487        N  0.56161353  0.10526579  0.76078447    -0.33000
N488        N  0.54782353  0.08971110  0.77778060    -0.27200
C489        C  0.54779849  0.09319878  0.81400354    -0.03300
C490        C  0.56252551  0.11172796  0.82013211     0.08900
C491        C  0.57084348  0.11897791  0.78574344     0.02700
H492        H  0.53738134  0.08329508  0.83393331     0.10400
H493        H  0.58198320  0.13357270  0.77883310     0.09400
N494        N  0.51536360  0.04118621  0.71666227    -0.34400
N495        N  0.51644057  0.04159114  0.67980179    -0.26600
C496        C  0.50675335  0.02321745  0.66890489    -0.01800
C497        C  0.49932961  0.01078923  0.70044008     0.06800
C498        C  0.50507080  0.02280214  0.72997850     0.04900
H499        H  0.50565545  0.01916640  0.64035696     0.10000
H500        H  0.50253323  0.01847869  0.75940885     0.08800
N501        N  0.59105663  0.17557413  0.45623650    -0.01700
C502        C  0.60112878  0.19522161  0.45536862     0.00800
C503        C  0.60389114  0.20301730  0.91949479    -0.22000
C504        C  0.59437730  0.18785422  0.89681485    -0.22200
C505        C  0.58697674  0.17132154  0.92009374     0.00700
H506        H  0.61144858  0.21813578  0.91041425     0.14500
H507        H  0.59331637  0.18872552  0.86643977     0.14600
N508        N  0.45143396  0.90981119  0.80107786    -0.25600
N509        N  0.44352660  0.89314796  0.78504958    -0.33400
C510        C  0.43804926  0.87876257  0.81162884     0.02800
C511        C  0.44251506  0.88654185  0.84641004     0.08800
C512        C  0.45096514  0.90634811  0.83881647    -0.04300
H513        H  0.43158095  0.86367520  0.80603806     0.09500
H514        H  0.45694344  0.91737340  0.85908608     0.10700
Cu515      Cu  0.44144342  0.89048324  0.72774925     0.44200
Cu516      Cu  0.46332189  0.93578922  0.76812297     0.42000
Cu517      Cu  0.46406910  0.93231978  0.66438009     0.43900
N518        N  0.44177103  0.88881998  0.67055922    -0.33000
N519        N  0.45063059  0.90389541  0.64679765    -0.27200
C520        C  0.44850627  0.89745077  0.61205921    -0.03300
C521        C  0.43755364  0.87743311  0.61434394     0.08900
C522        C  0.43358240  0.87257065  0.65184048     0.02700
H523        H  0.45404396  0.90662142  0.58690378     0.10400
H524        H  0.42541906  0.85820289  0.66470732     0.09400
N525        N  0.47495703  0.95827410  0.69166519    -0.34400
N526        N  0.47451092  0.95924951  0.72839115    -0.26600
C527        C  0.48278300  0.97789211  0.73647818    -0.01800
C528        C  0.48881123  0.98935925  0.70361538     0.06800
C529        C  0.48357244  0.97640101  0.67571463     0.04900
H530        H  0.48450970  0.98275598  0.76453559     0.10000
H531        H  0.48604603  0.97989601  0.64604496     0.08800
N532        N  0.41078650  0.82285964  0.49863304    -0.01700
C533        C  0.39875695  0.80338358  0.50206603     0.00800
C534        C  0.39786712  0.79548231  0.96871771    -0.22000
C535        C  0.40781051  0.81016013  0.94287341    -0.22200
C536        C  0.41642942  0.82704432  0.96160677     0.00700
H537        H  0.38947235  0.78030889  0.96340864     0.14500
H538        H  0.40840431  0.80873132  0.91325367     0.14600
N539        N  0.36271062  0.70931236  0.62674014    -0.25600
N540        N  0.34562027  0.70803845  0.62601312    -0.33400
C541        C  0.34735986  0.72519034  0.61410258     0.02800
C542        C  0.36643158  0.73804833  0.60612413     0.08800
C543        C  0.37572624  0.72737283  0.61483016    -0.04300
H544        H  0.33530650  0.72771790  0.60994844     0.09500
H545        H  0.39061100  0.73196972  0.61033321     0.10700
Cu546      Cu  0.31984613  0.68239496  0.63431328     0.44200
Cu547      Cu  0.36692889  0.68563155  0.64033476     0.42000
Cu548      Cu  0.32308847  0.63990993  0.65969210     0.43900
N549        N  0.29586351  0.65483675  0.63617620    -0.33000
N550        N  0.29702945  0.63924599  0.64663799    -0.27200
C551        C  0.27967898  0.62358433  0.64116221    -0.03300
C552        C  0.26681544  0.62943490  0.62576343     0.08900
C553        C  0.27777648  0.64947500  0.62331060     0.02700
H554        H  0.27708032  0.60901950  0.64625021     0.10400
H555        H  0.27343713  0.65944748  0.61021370     0.09400
N556        N  0.35041156  0.64283968  0.66051490    -0.34400
N557        N  0.36633067  0.65927590  0.65319087    -0.26600
C558        C  0.38095917  0.65560624  0.65203851    -0.01800
C559        C  0.37394662  0.63591458  0.65864750     0.06800
C560        C  0.35449745  0.62838165  0.66398820     0.04900
H561        H  0.39537373  0.66630040  0.64428773     0.10000
H562        H  0.34384079  0.61334187  0.66836094     0.08800
N563        N  0.44676093  0.53815316  0.78220463    -0.25600
N564        N  0.43475416  0.54101343  0.80049357    -0.33400
C565        C  0.42625657  0.54858050  0.77616879     0.02800
C566        C  0.43329792  0.55080095  0.74072217     0.08800
C567        C  0.44618735  0.54387380  0.74581458    -0.04300
H568        H  0.41662002  0.55331121  0.78423761     0.09500
H569        H  0.45500819  0.54355292  0.72479730     0.10700
Cu570      Cu  0.43283766  0.53745165  0.85881686     0.44200
Cu571      Cu  0.46512468  0.52858205  0.80831354     0.42000
Cu572      Cu  0.47044539  0.53103056  0.90934776     0.43900
N573        N  0.43791299  0.53909952  0.91686492    -0.33000
N574        N  0.45238657  0.53798650  0.93483124    -0.27200
C575        C  0.45362202  0.54273955  0.97058087    -0.03300
C576        C  0.43897709  0.54661124  0.97561857     0.08900
C577        C  0.42936379  0.54422846  0.94095715     0.02700
H578        H  0.46483493  0.54407033  0.99094896     0.10400
H579        H  0.41797273  0.54749485  0.93309366     0.09400
N580        N  0.48498248  0.52169652  0.87860569    -0.34400
N581        N  0.48295780  0.52049715  0.84170864    -0.26600
C582        C  0.49359997  0.51308862  0.83096257    -0.01800
C583        C  0.50270334  0.50943040  0.86260841     0.06800
C584        C  0.49689384  0.51512620  0.89221279     0.04900
H585        H  0.49441535  0.51028806  0.80229531     0.10000
H586        H  0.50072428  0.51420079  0.92166532     0.08800
N587        N  0.42167048  0.59075695  0.60715956    -0.01700
C588        C  0.41686973  0.60495061  0.60508708     0.00800
C589        C  0.42101922  0.61480163  0.57039887    -0.22000
C590        C  0.42854530  0.60660095  0.55010761    -0.22200
C591        C  0.42875736  0.59194750  0.57294364     0.00700
H592        H  0.41792964  0.62613515  0.56030278     0.14500
H593        H  0.43248544  0.61022648  0.52105245     0.14600
N594        N  0.56630978  0.46653339  0.94784894    -0.25600
N595        N  0.57690975  0.46173167  0.92961777    -0.33400
C596        C  0.58476055  0.45364893  0.95423138     0.02800
C597        C  0.57874226  0.45306284  0.98985811     0.08800
C598        C  0.56707145  0.46142993  0.98461631    -0.04300
H599        H  0.59303955  0.44729860  0.94632883     0.09500
H600        H  0.55906906  0.46297437  0.00578200     0.10700
Cu601      Cu  0.57744736  0.46307246  0.87132216     0.44200
Cu602      Cu  0.54964836  0.47797725  0.92069915     0.42000
Cu603      Cu  0.54364569  0.47457193  0.81912770     0.43900
N604        N  0.57175715  0.46035198  0.81373545    -0.33000
N605        N  0.55868050  0.46355892  0.79500223    -0.27200
C606        C  0.55684165  0.45823713  0.75951300    -0.03300
C607        C  0.56960878  0.45167995  0.75558110     0.08900
C608        C  0.57880128  0.45322387  0.79050704     0.02700
H609        H  0.54671218  0.45875968  0.73836404     0.10400
H610        H  0.58905829  0.44846304  0.79898020     0.09400
N611        N  0.53145891  0.48660949  0.84932259    -0.34400
N612        N  0.53361997  0.48801060  0.88618995    -0.26600
C613        C  0.52388298  0.49647779  0.89654090    -0.01800
C614        C  0.51520355  0.50057866  0.86473165     0.06800
C615        C  0.52037606  0.49411447  0.83538163     0.04900
H616        H  0.52306552  0.49932065  0.92517476     0.10000
H617        H  0.51629106  0.49470295  0.80598170     0.08800
N618        N  0.58610069  0.40830294  0.61949920    -0.01700
C619        C  0.59028538  0.39375972  0.61981608     0.00800
C620        C  0.58480737  0.38255245  0.65294828    -0.22000
C621        C  0.57700923  0.39028174  0.67391503    -0.22200
C622        C  0.57800968  0.40600808  0.65299936     0.00700
H623        H  0.58734013  0.37072558  0.66184261     0.14500
H624        H  0.57237005  0.38577134  0.70244317     0.14600
N625        N  0.64338801  0.29364003  0.54131433    -0.25600
N626        N  0.65967001  0.29348917  0.54919489    -0.33400
C627        C  0.65662232  0.27558415  0.54569350     0.02800
C628        C  0.63749999  0.26375035  0.53471128     0.08800
C629        C  0.62959116  0.27581281  0.53236668    -0.04300
H630        H  0.66777320  0.27170925  0.54976195     0.09500
H631        H  0.61512586  0.27219953  0.52285860     0.10700
Cu632      Cu  0.68602491  0.31808624  0.55947437     0.44200
Cu633      Cu  0.64111652  0.31849103  0.54111523     0.42000
Cu634      Cu  0.68639919  0.36336572  0.55374382     0.43900
N635        N  0.71122387  0.34468571  0.56139268    -0.33000
N636        N  0.71142943  0.36132799  0.55905347    -0.27200
C637        C  0.72980526  0.37575413  0.55760605    -0.03300
C638        C  0.74188914  0.36788973  0.55877680     0.08900
C639        C  0.72942671  0.34809240  0.56128783     0.02700
H640        H  0.73392307  0.39084523  0.55461854     0.10400
H641        H  0.73316264  0.33690153  0.56042522     0.09400
N642        N  0.65939522  0.36142121  0.54992036    -0.34400
N643        N  0.64297386  0.34516617  0.54578100    -0.26600
C644        C  0.62832184  0.34862636  0.54843611    -0.01800
C645        C  0.63576161  0.36802029  0.55459591     0.06800
C646        C  0.65557959  0.37561736  0.55500548     0.04900
H647        H  0.61336576  0.33750756  0.54844414     0.10000
H648        H  0.66656452  0.39026616  0.56001295     0.08800
C649        C  0.60552917  0.37059616  0.55308896     0.25300
C650        C  0.62491928  0.37751080  0.56521052    -0.22800
C651        C  0.63328927  0.39249658  0.59038517     0.20200
C652        C  0.62229075  0.39943508  0.60472328     0.25300
C653        C  0.60272472  0.39171632  0.59429499    -0.22700
C654        C  0.59452054  0.37751036  0.56783057     0.20200
F655        F  0.57545087  0.36926498  0.55850976    -0.12700
F656        F  0.59693875  0.35658870  0.52808006    -0.15100
F657        F  0.63029562  0.41241113  0.63183380    -0.15100
F658        F  0.65161198  0.39928160  0.60414427    -0.12700
C659        C  0.55492287  0.42659787  0.70783554     0.25300
C660        C  0.57128552  0.44232794  0.72326054    -0.22800
C661        C  0.58948857  0.44772200  0.71029264     0.20200
C662        C  0.59138989  0.43704790  0.68353873     0.25300
C663        C  0.57519441  0.42047570  0.67028744    -0.22700
C664        C  0.55691326  0.41551533  0.68212647     0.20200
F665        F  0.54114253  0.39916165  0.67080071    -0.12700
F666        F  0.53719635  0.42089580  0.72022468    -0.15100
F667        F  0.60923692  0.44178157  0.67332572    -0.15100
F668        F  0.60551152  0.46284674  0.72476193    -0.12700
C669        C  0.56744506  0.41922803  0.57657695     0.25300
C670        C  0.58510011  0.42011606  0.58734816    -0.22800
C671        C  0.60124861  0.43239346  0.56604739     0.20200
C672        C  0.59963451  0.44333202  0.53443151     0.25300
C673        C  0.58123788  0.44240437  0.02416552    -0.22700
C674        C  0.56552506  0.43065535  0.04680587     0.20200
F675        F  0.54810833  0.42923484  0.03833483    -0.12700
F676        F  0.55131120  0.40728456  0.09668864    -0.15100
F677        F  0.61547292  0.45502450  0.51443945    -0.15100
F678        F  0.61863941  0.43414337  0.57621704    -0.12700
C679        C  0.45110479  0.57487518  0.01507959     0.25300
C680        C  0.43689132  0.55598779  0.00740477    -0.22800
C681        C  0.41981997  0.54714459  0.02722586     0.20200
C682        C  0.41749980  0.56011824  0.54656890     0.25300
C683        C  0.43288468  0.57786828  0.55758315    -0.22700
C684        C  0.44766041  0.58530038  0.03991638     0.20200
F685        F  0.46081307  0.60417096  0.04389884    -0.12700
F686        F  0.46759025  0.58382738  0.99591179    -0.15100
F687        F  0.39952603  0.55395018  0.55817257    -0.15100
F688        F  0.40591792  0.52887112  0.02028255    -0.12700
C689        C  0.40893094  0.56913859  0.66494369     0.25300
C690        C  0.42408575  0.58049703  0.64070131    -0.22800
C691        C  0.44216266  0.58207879  0.64999791     0.20200
C692        C  0.44499052  0.57229836  0.68195792     0.25300
C693        C  0.42989363  0.56083765  0.70622982    -0.22700
C694        C  0.41183634  0.55953964  0.69751938     0.20200
F695        F  0.39682340  0.54859169  0.72000025    -0.12700
F696        F  0.39119033  0.56687959  0.65671656    -0.15100
F697        F  0.46287698  0.57482344  0.68990904    -0.15100
F698        F  0.45746020  0.59378742  0.62875545    -0.12700
C699        C  0.40391981  0.63297577  0.66346377     0.25300
C700        C  0.38422395  0.62511660  0.65334899    -0.22800
C701        C  0.37492963  0.60777538  0.63458688     0.20200
C702        C  0.38542720  0.59951129  0.62335905     0.25300
C703        C  0.40535883  0.60815965  0.63102987    -0.22700
C704        C  0.41437980  0.62458578  0.65231605     0.20200
F705        F  0.43369986  0.63356731  0.65913883    -0.12700
F706        F  0.41327627  0.64934089  0.68254229    -0.15100
F707        F  0.37653525  0.58433329  0.60094371    -0.15100
F708        F  0.35610923  0.59987834  0.62338164    -0.12700
C709        C  0.40191245  0.78799690  0.56445455     0.25300
C710        C  0.39028111  0.79095563  0.53641388    -0.22800
C711        C  0.37039195  0.77799382  0.53546496     0.20200
C712        C  0.36248625  0.76140677  0.55943933     0.25300
C713        C  0.37430569  0.75736781  0.58544529    -0.22700
C714        C  0.39399775  0.77135406  0.58883043     0.20200
F715        F  0.40577757  0.76856602  0.61467225    -0.12700
F716        F  0.42117226  0.80027513  0.56607326    -0.15100
F717        F  0.34352451  0.74851932  0.55435143    -0.15100
F718        F  0.35877209  0.78053182  0.50874292    -0.12700
C719        C  0.44153211  0.84854180  0.91683512     0.25300
C720        C  0.42736330  0.84606561  0.94104131    -0.22800
C721        C  0.42081613  0.85949698  0.93802166     0.20200
C722        C  0.42715199  0.87412875  0.90905790     0.25300
C723        C  0.43993029  0.87531243  0.88273600    -0.22700
C724        C  0.44765715  0.86291809  0.88791340     0.20200
F725        F  0.46021976  0.86390199  0.86326216    -0.12700
F726        F  0.44826636  0.83592149  0.91928028    -0.15100
F727        F  0.41935204  0.88583207  0.90447761    -0.15100
F728        F  0.40684190  0.85722947  0.96042379    -0.12700
C729        C  0.44366649  0.86407045  0.55912821     0.25300
C730        C  0.43071917  0.86382067  0.58377951    -0.22800
C731        C  0.41116540  0.84977974  0.58027961     0.20200
C732        C  0.40460341  0.83648080  0.55219995     0.25300
C733        C  0.41755331  0.83653129  0.52774741    -0.22700
C734        C  0.43719512  0.85037559  0.53175089     0.20200
F735        F  0.45023185  0.85024306  0.50993850    -0.12700
F736        F  0.46270954  0.87705503  0.56259600    -0.15100
F737        F  0.38548751  0.82390875  0.54824385    -0.15100
F738        F  0.39829402  0.84924462  0.60356528    -0.12700
C739        C  0.63030551  0.21970242  0.48773564     0.25300
C740        C  0.61020986  0.20804746  0.48687379    -0.22800
C741        C  0.59931321  0.21353500  0.50630153     0.20200
C742        C  0.60827525  0.23113992  0.52392524     0.25300
C743        C  0.62831831  0.24364046  0.52210243    -0.22700
C744        C  0.63928440  0.23729343  0.50498886     0.20200
F745        F  0.65849386  0.24888456  0.50130479    -0.12700
F746        F  0.64179421  0.21486981  0.97163128    -0.15100
F747        F  0.59719231  0.23633366  0.54118115    -0.15100
F748        F  0.57983175  0.20279016  0.50499663    -0.12700
C749        C  0.58726190  0.14177836  0.90390158     0.25300
C750        C  0.57733201  0.15206722  0.90442678    -0.22800
C751        C  0.56086903  0.14687172  0.88078702     0.20200
C752        C  0.55511259  0.13247950  0.85536021     0.25300
C753        C  0.56588021  0.12323287  0.85279718    -0.22700
C754        C  0.58162439  0.12749861  0.87800328     0.20200
F755        F  0.59230876  0.11880938  0.87569807    -0.12700
F756        F  0.60357109  0.14697461  0.92552422    -0.15100
F757        F  0.54003122  0.12877234  0.83091245    -0.15100
F758        F  0.55138808  0.15698363  0.88003412    -0.12700
C759        C  0.55992822  0.13465246  0.52354111     0.25300
C760        C  0.57338798  0.13511367  0.55163997    -0.22800
C761        C  0.59290473  0.14921635  0.54772908     0.20200
C762        C  0.59876719  0.16246269  0.51646230     0.25300
C763        C  0.58523327  0.16209647  0.48869981    -0.22700
C764        C  0.56576593  0.14805764  0.49265999     0.20200
F765        F  0.55224267  0.14769709  0.46705367    -0.12700
F766        F  0.54094235  0.12170654  0.52665624    -0.15100
F767        F  0.61774244  0.17526245  0.51274318    -0.15100
F768        F  0.60643046  0.14985029  0.57367069    -0.12700
C769        C  0.79281068  0.37601040  0.05243404     0.25300
C770        C  0.80082025  0.39288705  0.52698457    -0.22800
C771        C  0.79027864  0.40234041  0.51639928     0.20200
C772        C  0.77162625  0.39505377  0.52880133     0.25300
C773        C  0.76294839  0.37790911  0.55182205    -0.22700
C774        C  0.77422299  0.36868349  0.06545011     0.20200
F775        F  0.76705814  0.35278324  0.08929799    -0.12700
F776        F  0.80254165  0.36636327  0.06211713    -0.15100
F777        F  0.76150684  0.40378179  0.51497698    -0.15100
F778        F  0.79720538  0.41741160  0.49049880    -0.12700
C779        C  0.88478671  0.42745355  0.91072869     0.25300
C780        C  0.88537987  0.44443144  0.89510877    -0.22800
C781        C  0.87383594  0.45073992  0.90973488     0.20200
C782        C  0.86092066  0.43957518  0.93779062     0.25300
C783        C  0.85899890  0.42168867  0.95081216    -0.22700
C784        C  0.87143230  0.41598332  0.93792002     0.20200
F785        F  0.86959557  0.39858846  0.94954212    -0.12700
F786        F  0.89579470  0.42103696  0.89709440    -0.15100
F787        F  0.84883266  0.44521483  0.94926565    -0.15100
F788        F  0.87434734  0.46721376  0.89535833    -0.12700
C789        C  0.85569976  0.44197557  0.58295853     0.25300
C790        C  0.87171663  0.43971647  0.59426028    -0.22800
C791        C  0.87499889  0.42711921  0.57495307     0.20200
C792        C  0.86266037  0.41706310  0.54517813     0.25300
C793        C  0.84685177  0.41952234  0.53329464    -0.22700
C794        C  0.84347682  0.43209602  0.55252208     0.20200
F795        F  0.82878200  0.43531806  0.54119139    -0.12700
F796        F  0.85221721  0.45420393  0.60061887    -0.15100
F797        F  0.86588681  0.40390044  0.02739056    -0.15100
F798        F  0.88979832  0.42392383  0.58576349    -0.12700
C799        C  0.22515488  0.58951388  0.57200697     0.25300
C800        C  0.21354509  0.59779630  0.56156747    -0.22800
C801        C  0.21774770  0.61493210  0.57752650     0.20200
C802        C  0.23434757  0.62455918  0.60074583     0.25300
C803        C  0.24719092  0.61729730  0.60810736    -0.22700
C804        C  0.24175932  0.59907743  0.59489979     0.20200
F805        F  0.25327521  0.59114160  0.60088426    -0.12700
F806        F  0.22287396  0.57628807  0.05335626    -0.15100
F807        F  0.23825882  0.64146908  0.61445218    -0.15100
F808        F  0.20689267  0.62337293  0.56756951    -0.12700
C809        C  0.13315886  0.55571374  0.93005616     0.25300
C810        C  0.13327662  0.56875158  0.90095266    -0.22800
C811        C  0.14652471  0.58847855  0.90336827     0.20200
C812        C  0.16049139  0.59489255  0.93247379     0.25300
C813        C  0.16155806  0.58172230  0.95969234    -0.22700
C814        C  0.14732397  0.56218097  0.95928681     0.20200
F815        F  0.14827119  0.54915700  0.98493269    -0.12700
F816        F  0.12058992  0.53655720  0.92821561    -0.15100
F817        F  0.17397730  0.61387482  0.93252720    -0.15100
F818        F  0.14660111  0.60146026  0.87627859    -0.12700
C819        C  0.15303552  0.56166070  0.60455845     0.25300
C820        C  0.13990737  0.56852047  0.60172285    -0.22800
C821        C  0.14096592  0.58137786  0.57153482     0.20200
C822        C  0.15529349  0.58766649  0.54514669     0.25300
C823        C  0.16846149  0.58077407  0.54796849    -0.22700
C824        C  0.16699734  0.56752722  0.57774196     0.20200
F825        F  0.17884619  0.55991564  0.58043098    -0.12700
F826        F  0.15219109  0.54906849  0.63326941    -0.15100
F827        F  0.15674959  0.60103494  0.51768694    -0.15100
F828        F  0.12871705  0.58853566  0.56861848    -0.12700
loop_ 
_geom_bond_atom_site_label_1 
_geom_bond_atom_site_label_2 
_geom_bond_distance 
_geom_bond_site_symmetry_2 
_ccdc_geom_bond_type 
N1            N2   1.320       .  A
N1            C5   1.351       .  A
N1           Cu9   2.080       .  S
N2            C3   1.341       .  A
N2           Cu8   2.062       .  S
C3            C4   1.382       .  A
C3            H6   1.082       .  S
C4            C5   1.388       .  A
C4          C396   1.478       .  S
C5            H7   1.082       .  S
Cu8          N11   2.061       .  S
Cu9          N19   2.083       .  S
Cu10         N12   2.109       .  S
Cu10         N18   2.110       .  S
N11          N12   1.323       .  A
N11          C15   1.342       .  A
N12          C13   1.354       .  A
C13          C14   1.392       .  A
C13          H16   1.082       .  S
C14          C15   1.378       .  A
C14         C406   1.482       .  S
C15          H17   1.082       .  S
N18          N19   1.326       .  A
N18          C22   1.353       .  A
N19          C20   1.344       .  A
C20          C21   1.382       .  A
C20          H23   1.082       .  S
C21          C22   1.389       .  A
C21          C52   1.481   1_455  S
C22          H24   1.082       .  S
N25          C26   1.365       .  A
N25         C443   1.362   1_554  A
N25         C409   1.447       .  S
C26         C441   1.381   1_554  A
C26         C386   1.482       .  S
C27          C28   1.367       .  A
C27         C440   1.381       .  A
C27          H30   1.082       .  S
C28          C29   1.381       .  A
C28          H31   1.082       .  S
C29         N439   1.362       .  A
C29         C399   1.479       .  S
N32          N33   1.324       .  A
N32          C36   1.347       .  A
N32         Cu40   2.098       .  S
N33          C34   1.349       .  A
N33         Cu39   2.087       .  S
C34          C35   1.387       .  A
C34          H37   1.082       .  S
C35          C36   1.390       .  A
C35         C376   1.492       .  S
C36          H38   1.082       .  S
Cu39         N42   2.087       .  S
Cu40         N50   2.098       .  S
Cu41         N43   2.077       .  S
Cu41         N49   2.077       .  S
N42          N43   1.323       .  A
N42          C46   1.346       .  A
N43          C44   1.348       .  A
C44          C45   1.383       .  A
C44          H47   1.082       .  S
C45          C46   1.384       .  A
C45         C366   1.477       .  S
C46          H48   1.082       .  S
N49          N50   1.323       .  A
N49          C53   1.344       .  A
N50          C51   1.352       .  A
C51          C52   1.389       .  A
C51          H54   1.082       .  S
C52          C53   1.384       .  A
C53          H55   1.082       .  S
N56          C57   1.364       .  A
N56         C474   1.362   1_554  A
N56         C379   1.449       .  S
C57         C472   1.382   1_554  A
C57         C356   1.480       .  S
C58          C59   1.369       .  A
C58         C471   1.382       .  A
C58          H61   1.082       .  S
C59          C60   1.380       .  A
C59          H62   1.082       .  S
C60         N470   1.362       .  A
C60         C369   1.479       .  S
N63          N64   1.324       .  A
N63          C67   1.353       .  A
N63         Cu71   2.119       .  S
N64          C65   1.347       .  A
N64         Cu70   2.081       .  S
C65          C66   1.385       .  A
C65          H68   1.082       .  S
C66          C67   1.394       .  A
C66         C346   1.496       .  S
C67          H69   1.082       .  S
Cu70         N73   2.080       .  S
Cu71         N81   2.119       .  S
Cu72         N74   2.074       .  S
Cu72         N80   2.075       .  S
N73          N74   1.321       .  A
N73          C77   1.344       .  A
N74          C75   1.348       .  A
C75          C76   1.384       .  A
C75          H78   1.082       .  S
C76          C77   1.383       .  A
C76         C339   1.473       .  S
C77          H79   1.082       .  S
N80          N81   1.325       .  A
N80          C84   1.344       .  A
N81          C82   1.355       .  A
C82          C83   1.393       .  A
C82          H85   1.082       .  S
C83          C84   1.382       .  A
C83         C114   1.486   1_545  S
C84          H86   1.082       .  S
N87          C88   1.365       .  A
N87         C505   1.363       .  A
N87         C349   1.449       .  S
C88         C503   1.381       .  A
C88         C326   1.479       .  S
C89          C90   1.366       .  A
C89         C502   1.381       .  A
C89          H92   1.083       .  S
C90          C91   1.380       .  A
C90          H93   1.082       .  S
C91         N501   1.362       .  A
C91         C336   1.477       .  S
N94          N95   1.321       .  A
N94          C98   1.354       .  A
N94        Cu102   2.100       .  S
N95          C96   1.341       .  A
N95        Cu101   2.066       .  S
C96          C97   1.381       .  A
C96          H99   1.082       .  S
C97          C98   1.391       .  A
C97         C309   1.483       .  S
C98         H100   1.082       .  S
Cu101       N104   2.066       .  S
Cu102       N112   2.102       .  S
Cu103       N105   2.105       .  S
Cu103       N111   2.106       .  S
N104        N105   1.322       .  A
N104        C108   1.344       .  A
N105        C106   1.352       .  A
C106        C107   1.391       .  A
C106        H109   1.082       .  S
C107        C108   1.380       .  A
C107        C316   1.483       .  S
C108        H110   1.082       .  S
N111        N112   1.327       .  A
N111        C115   1.353       .  A
N112        C113   1.346       .  A
C113        C114   1.386       .  A
C113        H116   1.082       .  S
C114        C115   1.388       .  A
C115        H117   1.082       .  S
N118        C119   1.366   1_556  A
N118        C536   1.365       .  A
N118        C319   1.447   1_556  S
C119        C534   1.381   1_554  A
C119        C296   1.485       .  S
C120        C121   1.366       .  A
C120        C533   1.382       .  A
C120        H123   1.083       .  S
C121        C122   1.381       .  A
C121        H124   1.082       .  S
C122        N532   1.365       .  A
C122        C306   1.485       .  S
N125        N126   1.323       .  A
N125        C129   1.350       .  A
N125       Cu133   2.100       .  S
N126        C127   1.345       .  A
N126       Cu132   2.086       .  S
C127        C128   1.390       .  A
C127        H130   1.081       .  S
C128        C129   1.393       .  A
C128        C299   1.498       .  S
C129        H131   1.082       .  S
Cu132       N135   2.086       .  S
Cu133       N143   2.100       .  S
Cu134       N136   2.082       .  S
Cu134       N142   2.083       .  S
N135        N136   1.320       .  A
N135        C139   1.348       .  A
N136        C137   1.346       .  A
C137        C138   1.392       .  A
C137        H140   1.080       .  S
C138        C139   1.392       .  A
C138        C389   1.498       .  S
C139        H141   1.081       .  S
N142        N143   1.323       .  A
N142        C146   1.346       .  A
N143        C144   1.349       .  A
C144        C145   1.391       .  A
C144        H147   1.082       .  S
C145        C146   1.388       .  A
C145        C286   1.494       .  S
C146        H148   1.081       .  S
N149        N150   1.323       .  A
N149        C153   1.350       .  A
N149       Cu157   2.112       .  S
N150        C151   1.349       .  A
N150       Cu156   2.084       .  S
C151        C152   1.388       .  A
C151        H154   1.082       .  S
C152        C153   1.395       .  A
C152        C279   1.500       .  S
C153        H155   1.081       .  S
Cu156       N159   2.083       .  S
Cu157       N167   2.111       .  S
Cu158       N160   2.081       .  S
Cu158       N166   2.081       .  S
N159        N160   1.322       .  A
N159        C163   1.346       .  A
N160        C161   1.347       .  A
C161        C162   1.386       .  A
C161        H164   1.082       .  S
C162        C163   1.385       .  A
C162        C266   1.481       .  S
C163        H165   1.082       .  S
N166        N167   1.324       .  A
N166        C170   1.347       .  A
N167        C168   1.351       .  A
C168        C169   1.391       .  A
C168        H171   1.082       .  S
C169        C170   1.383       .  A
C169        C200   1.485       .  S
C170        H172   1.082       .  S
N173        C177   1.366       .  A
N173        C174   1.368       .  A
N173        C276   1.454       .  S
C174        C175   1.381       .  A
C174        C289   1.480       .  S
C175        C176   1.365       .  A
C175        H178   1.083       .  S
C176        C177   1.379       .  A
C176        H179   1.082       .  S
C177        C269   1.481       .  S
N180        N181   1.323       .  A
N180        C184   1.350       .  A
N180       Cu188   2.110       .  S
N181        C182   1.348       .  A
N181       Cu187   2.081       .  S
C182        C183   1.386       .  A
C182        H185   1.082       .  S
C183        C184   1.392       .  A
C183        C259   1.493       .  S
C184        H186   1.082       .  S
Cu187       N190   2.082       .  S
Cu188       N198   2.110       .  S
Cu189       N191   2.078       .  S
Cu189       N197   2.078       .  S
N190        N191   1.323       .  A
N190        C194   1.346       .  A
N191        C192   1.347       .  A
C192        C193   1.383       .  A
C192        H195   1.082       .  S
C193        C194   1.384       .  A
C193        C246   1.477       .  S
C194        H196   1.082       .  S
N197        N198   1.324       .  A
N197        C201   1.348       .  A
N198        C199   1.351       .  A
C199        C200   1.391       .  A
C199        H202   1.082       .  S
C200        C201   1.384       .  A
C201        H203   1.082       .  S
N204        C208   1.361       .  A
N204        C205   1.364       .  A
N204        C256   1.451       .  S
C205        C206   1.382       .  A
C205        C239   1.478       .  S
C206        C207   1.369       .  A
C206        H209   1.083       .  S
C207        C208   1.379       .  A
C207        H210   1.082       .  S
C208        C249   1.476       .  S
N211        N212   1.322       .  A
N211        C215   1.348       .  A
N211       Cu219   2.088       .  S
N212        C213   1.346       .  A
N212       Cu218   2.087       .  S
C213        C214   1.390       .  A
C213        H216   1.081       .  S
C214        C215   1.391       .  A
C214        C329   1.495       .  S
C215        H217   1.081       .  S
Cu218       N221   2.087       .  S
Cu219       N229   2.088       .  S
Cu220       N222   2.088       .  S
Cu220       N228   2.088       .  S
N221        N222   1.321       .  A
N221        C225   1.347       .  A
N222        C223   1.347       .  A
C223        C224   1.392       .  A
C223        H226   1.081       .  S
C224        C225   1.391       .  A
C224        C359   1.498       .  S
C225        H227   1.081       .  S
N228        N229   1.322       .  A
N228        C232   1.346       .  A
N229        C230   1.348       .  A
C230        C231   1.390       .  A
C230        H233   1.082       .  S
C231        C232   1.390       .  A
C231        C236   1.494       .  S
C232        H234   1.081       .  S
C235        C236   1.412       .  A
C235        C240   1.406       .  A
C235        F242   1.357       .  S
C236        C237   1.410       .  A
C237        C238   1.399       .  A
C237        F244   1.357       .  S
C238        C239   1.405       .  A
C238        F243   1.359       .  S
C239        C240   1.403       .  A
C240        F241   1.357       .  S
C245        C246   1.405       .  A
C245        C250   1.400       .  A
C245        F252   1.358       .  S
C246        C247   1.405       .  A
C247        C248   1.401       .  A
C247        F254   1.358       .  S
C248        C249   1.404       .  A
C248        F253   1.358       .  S
C249        C250   1.405       .  A
C250        F251   1.358       .  S
C255        C256   1.409       .  A
C255        C674   1.399       .  A
C255        F676   1.356       .  S
C256        C257   1.407       .  A
C257        C258   1.410       .  A
C257        F264   1.356       .  S
C258        C673   1.412       .  A
C258        F263   1.357       .  S
C259        C260   1.405       .  A
C259        C672   1.412       .  A
C260        C669   1.399       .  A
C260        F261   1.357       .  S
F262        C669   1.356       .  S
C265        C266   1.406       .  A
C265        C270   1.400       .  A
C265        F272   1.358       .  S
C266        C267   1.407       .  A
C267        C682   1.404       .  A
C267        F274   1.358       .  S
C268        C269   1.405       .  A
C268        C681   1.404       .  A
C268        F273   1.358       .  S
C269        C684   1.407       .  A
C270        C683   1.406       .  A
C270        F271   1.358       .  S
C275        C276   1.408       .  A
C275        C280   1.410       .  A
C275        F282   1.355       .  S
C276        C277   1.409       .  A
C277        C278   1.401       .  A
C277        F284   1.356       .  S
C278        C279   1.408       .  A
C278        F283   1.357       .  S
C279        C280   1.413       .  A
C280        F281   1.357       .  S
C285        C286   1.410       .  A
C285        C290   1.406       .  A
C285        F292   1.357       .  S
C286        C287   1.410       .  A
C287        C288   1.401       .  A
C287        F294   1.357       .  S
C288        C289   1.406       .  A
C288        F293   1.358       .  S
C289        C290   1.405       .  A
C290        F291   1.357       .  S
C295        C296   1.404       .  A
C295        C300   1.409       .  A
C295        F302   1.357       .  S
C296        C297   1.405       .  A
C297        C298   1.398       .  A
C297        F304   1.359       .  S
C298        C299   1.411       .  A
C298        F303   1.356       .  S
C299        C300   1.414       .  A
C300        F301   1.357       .  S
C305        C306   1.406       .  A
C305        C310   1.396       .  A
C305        F312   1.358       .  S
C306        C307   1.407       .  A
C307        C308   1.409       .  A
C307        F314   1.357       .  S
C308        C309   1.408       .  A
C308        F313   1.357       .  S
C309        C310   1.404       .  A
C310        F311   1.358       .  S
C315        C316   1.405       .  A
C315        C320   1.404       .  A
C315        F322   1.358       .  S
C316        C317   1.407       .  A
C317        C318   1.402       .  A
C317        F324   1.358       .  S
C318        C319   1.407       .  A
C318        F323   1.356       .  S
C319        C320   1.410       .  A
C320        F321   1.357       .  S
C325        C326   1.404       .  A
C325        C330   1.399   1_556  A
C325        F746   1.358       .  S
C326        C327   1.404   1_556  A
C327        C328   1.406       .  A
C327        F334   1.358       .  S
C328        C329   1.412       .  A
C328        F333   1.357       .  S
C329        C330   1.410       .  A
C330        F331   1.357       .  S
F332        C739   1.358       .  S
C335        C336   1.405       .  A
C335        C340   1.404       .  A
C335        F342   1.358       .  S
C336        C337   1.406       .  A
C337        C338   1.397       .  A
C337        F344   1.358       .  S
C338        C339   1.402       .  A
C338        F343   1.358       .  S
C339        C340   1.405       .  A
C340        F341   1.358       .  S
C345        C346   1.408       .  A
C345        C350   1.404   1_554  A
C345        F352   1.357       .  S
C346        C347   1.412       .  A
C347        C348   1.407       .  A
C347        F354   1.357       .  S
C348        C349   1.406   1_554  A
C348        F353   1.357       .  S
C349        C350   1.408       .  A
C350        F351   1.357       .  S
C355        C360   1.404       .  A
C355        C770   1.403       .  A
C355        F362   1.358       .  S
C356        C357   1.405       .  A
C356        C769   1.403       .  A
C357        C358   1.402       .  A
C357        F364   1.358   1_554  S
C358        C359   1.412       .  A
C358        F363   1.356       .  S
C359        C774   1.413       .  A
C360        C773   1.412       .  A
C360        F361   1.357       .  S
C365        C366   1.405       .  A
C365        C370   1.402       .  A
C365        F372   1.358       .  S
C366        C367   1.404       .  A
C367        C368   1.401       .  A
C367        F374   1.357       .  S
C368        C369   1.404       .  A
C368        F373   1.358       .  S
C369        C370   1.407       .  A
C370        F371   1.358       .  S
C375        C376   1.411       .  A
C375        C380   1.409       .  A
C375        F382   1.357       .  S
C376        C377   1.406       .  A
C377        C378   1.398       .  A
C377        F384   1.358       .  S
C378        C379   1.408       .  A
C378        F797   1.357       .  S
C379        C380   1.407       .  A
C380        F381   1.355       .  S
F383        C792   1.357       .  S
C385        C386   1.404       .  A
C385        C390   1.399       .  A
C385        F806   1.358       .  S
C386        C387   1.403       .  A
C387        C388   1.406       .  A
C387        F394   1.357       .  S
C388        C389   1.413       .  A
C388        F393   1.357       .  S
C389        C390   1.412       .  A
C390        F391   1.356       .  S
F392        C799   1.358       .  S
C395        C396   1.408       .  A
C395        C400   1.407       .  A
C395        F402   1.357       .  S
C396        C397   1.404       .  A
C397        C398   1.394       .  A
C397        F404   1.358       .  S
C398        C399   1.404       .  A
C398        F403   1.358       .  S
C399        C400   1.406       .  A
C400        F401   1.357       .  S
C405        C406   1.406       .  A
C405        C410   1.400       .  A
C405        F412   1.358       .  S
C406        C407   1.405       .  A
C407        C408   1.405       .  A
C407        F414   1.358       .  S
C408        C409   1.410       .  A
C408        F413   1.356       .  S
C409        C410   1.406       .  A
C410        F411   1.357       .  S
N415        N416   1.320       .  A
N415        C419   1.351       .  A
N415       Cu423   2.082       .  S
N416        C417   1.341       .  A
N416       Cu422   2.063       .  S
C417        C418   1.382       .  A
C417        H420   1.082       .  S
C418        C419   1.388       .  A
C418        C810   1.479       .  S
C419        H421   1.082       .  S
Cu422       N425   2.063       .  S
Cu423       N433   2.084       .  S
Cu424       N426   2.105       .  S
Cu424       N432   2.106       .  S
N425        N426   1.323       .  A
N425        C429   1.341       .  A
N426        C427   1.353       .  A
C427        C428   1.391       .  A
C427        H430   1.082       .  S
C428        C429   1.378       .  A
C428        C820   1.480       .  S
C429        H431   1.082       .  S
N432        N433   1.326       .  A
N432        C436   1.352       .  A
N433        C434   1.344       .  A
C434        C435   1.382       .  A
C434        H437   1.082       .  S
C435        C436   1.388       .  A
C435        C466   1.480   1_455  S
C436        H438   1.082       .  S
N439        C440   1.365       .  A
N439        C823   1.447       .  S
C440        C800   1.482       .  S
C441        C442   1.367       .  A
C441        H444   1.082       .  S
C442        C443   1.381       .  A
C442        H445   1.082       .  S
C443        C813   1.479       .  S
N446        N447   1.324       .  A
N446        C450   1.347       .  A
N446       Cu454   2.096       .  S
N447        C448   1.350       .  A
N447       Cu453   2.089       .  S
C448        C449   1.387       .  A
C448        H451   1.082       .  S
C449        C450   1.389       .  A
C449        C790   1.491       .  S
C450        H452   1.082       .  S
Cu453       N456   2.089       .  S
Cu454       N464   2.095       .  S
Cu455       N457   2.076       .  S
Cu455       N463   2.076       .  S
N456        N457   1.323       .  A
N456        C460   1.346       .  A
N457        C458   1.348       .  A
C458        C459   1.384       .  A
C458        H461   1.082       .  S
C459        C460   1.385       .  A
C459        C780   1.478       .  S
C460        H462   1.082       .  S
N463        N464   1.323       .  A
N463        C467   1.344       .  A
N464        C465   1.351       .  A
C465        C466   1.388       .  A
C465        H468   1.082       .  S
C466        C467   1.384       .  A
C467        H469   1.082       .  S
N470        C471   1.364       .  A
N470        C793   1.449       .  S
C471        C770   1.479       .  S
C472        C473   1.369       .  A
C472        H475   1.082       .  S
C473        C474   1.379       .  A
C473        H476   1.082       .  S
C474        C783   1.479       .  S
N477        N478   1.324       .  A
N477        C481   1.352       .  A
N477       Cu485   2.116       .  S
N478        C479   1.347       .  A
N478       Cu484   2.081       .  S
C479        C480   1.385       .  A
C479        H482   1.082       .  S
C480        C481   1.394       .  A
C480        C760   1.495       .  S
C481        H483   1.082       .  S
Cu484       N487   2.081       .  S
Cu485       N495   2.117       .  S
Cu486       N488   2.079       .  S
Cu486       N494   2.080       .  S
N487        N488   1.322       .  A
N487        C491   1.345       .  A
N488        C489   1.349       .  A
C489        C490   1.385       .  A
C489        H492   1.082       .  S
C490        C491   1.383       .  A
C490        C753   1.475       .  S
C491        H493   1.082       .  S
N494        N495   1.325       .  A
N494        C498   1.344       .  A
N495        C496   1.355       .  A
C496        C497   1.393       .  A
C496        H499   1.082       .  S
C497        C498   1.383       .  A
C497        C528   1.487   1_545  S
C498        H500   1.082       .  S
N501        C502   1.364       .  A
N501        C763   1.449       .  S
C502        C740   1.478       .  S
C503        C504   1.366       .  A
C503        H506   1.083       .  S
C504        C505   1.380       .  A
C504        H507   1.082       .  S
C505        C750   1.478       .  S
N508        N509   1.321       .  A
N508        C512   1.354       .  A
N508       Cu516   2.100       .  S
N509        C510   1.341       .  A
N509       Cu515   2.064       .  S
C510        C511   1.381       .  A
C510        H513   1.082       .  S
C511        C512   1.391       .  A
C511        C723   1.482       .  S
C512        H514   1.082       .  S
Cu515       N518   2.064       .  S
Cu516       N526   2.102       .  S
Cu517       N519   2.107       .  S
Cu517       N525   2.109       .  S
N518        N519   1.322       .  A
N518        C522   1.343       .  A
N519        C520   1.352       .  A
C520        C521   1.391       .  A
C520        H523   1.082       .  S
C521        C522   1.380       .  A
C521        C730   1.484       .  S
C522        H524   1.082       .  S
N525        N526   1.327       .  A
N525        C529   1.353       .  A
N526        C527   1.346       .  A
C527        C528   1.386       .  A
C527        H530   1.082       .  S
C528        C529   1.389       .  A
C529        H531   1.082       .  S
N532        C533   1.366       .  A
N532        C733   1.447       .  S
C533        C710   1.486       .  S
C534        C535   1.366       .  A
C534        H537   1.083       .  S
C535        C536   1.382       .  A
C535        H538   1.082       .  S
C536        C720   1.486       .  S
N539        N540   1.322       .  A
N539        C543   1.350       .  A
N539       Cu547   2.100       .  S
N540        C541   1.345       .  A
N540       Cu546   2.084       .  S
C541        C542   1.390       .  A
C541        H544   1.081       .  S
C542        C543   1.393       .  A
C542        C713   1.498       .  S
C543        H545   1.082       .  S
Cu546       N549   2.085       .  S
Cu547       N557   2.100       .  S
Cu548       N550   2.084       .  S
Cu548       N556   2.084       .  S
N549        N550   1.320       .  A
N549        C553   1.347       .  A
N550        C551   1.346       .  A
C551        C552   1.393       .  A
C551        H554   1.080       .  S
C552        C553   1.393       .  A
C552        C803   1.501       .  S
C553        H555   1.081       .  S
N556        N557   1.323       .  A
N556        C560   1.347       .  A
N557        C558   1.349       .  A
C558        C559   1.391       .  A
C558        H561   1.082       .  S
C559        C560   1.387       .  A
C559        C700   1.493       .  S
C560        H562   1.081       .  S
N563        N564   1.323       .  A
N563        C567   1.348       .  A
N563       Cu571   2.105       .  S
N564        C565   1.350       .  A
N564       Cu570   2.088       .  S
C565        C566   1.389       .  A
C565        H568   1.082       .  S
C566        C567   1.392       .  A
C566        C693   1.498       .  S
C567        H569   1.081       .  S
Cu570       N573   2.088       .  S
Cu571       N581   2.105       .  S
Cu572       N574   2.082       .  S
Cu572       N580   2.082       .  S
N573        N574   1.323       .  A
N573        C577   1.347       .  A
N574        C575   1.348       .  A
C575        C576   1.384       .  A
C575        H578   1.082       .  S
C576        C577   1.385       .  A
C576        C680   1.478   1_556  S
C577        H579   1.082       .  S
N580        N581   1.323       .  A
N580        C584   1.348       .  A
N581        C582   1.351       .  A
C582        C583   1.390       .  A
C582        H585   1.082       .  S
C583        C584   1.384       .  A
C583        C614   1.485       .  S
C584        H586   1.082       .  S
N587        C591   1.365       .  A
N587        C588   1.366       .  A
N587        C690   1.452       .  S
C588        C589   1.381       .  A
C588        C703   1.479       .  S
C589        C590   1.366       .  A
C589        H592   1.083       .  S
C590        C591   1.379       .  A
C590        H593   1.082       .  S
C591        C683   1.480       .  S
N594        N595   1.323       .  A
N594        C598   1.350       .  A
N594       Cu602   2.109       .  S
N595        C596   1.348       .  A
N595       Cu601   2.082       .  S
C596        C597   1.386       .  A
C596        H599   1.082       .  S
C597        C598   1.393       .  A
C597        C673   1.494   1_556  S
C598        H600   1.082   1_556  S
Cu601       N604   2.082       .  S
Cu602       N612   2.109       .  S
Cu603       N605   2.081       .  S
Cu603       N611   2.081       .  S
N604        N605   1.323       .  A
N604        C608   1.345       .  A
N605        C606   1.348       .  A
C606        C607   1.385       .  A
C606        H609   1.082       .  S
C607        C608   1.384       .  A
C607        C660   1.479       .  S
C608        H610   1.082       .  S
N611        N612   1.324       .  A
N611        C615   1.348       .  A
N612        C613   1.350       .  A
C613        C614   1.390       .  A
C613        H616   1.082       .  S
C614        C615   1.384       .  A
C615        H617   1.082       .  S
N618        C622   1.361       .  A
N618        C619   1.363       .  A
N618        C670   1.450       .  S
C619        C620   1.382       .  A
C619        C653   1.478       .  S
C620        C621   1.369       .  A
C620        H623   1.082       .  S
C621        C622   1.379       .  A
C621        H624   1.082       .  S
C622        C663   1.477       .  S
N625        N626   1.322       .  A
N625        C629   1.348       .  A
N625       Cu633   2.088       .  S
N626        C627   1.345       .  A
N626       Cu632   2.085       .  S
C627        C628   1.390       .  A
C627        H630   1.081       .  S
C628        C629   1.391       .  A
C628        C743   1.494       .  S
C629        H631   1.081       .  S
Cu632       N635   2.085       .  S
Cu633       N643   2.088       .  S
Cu634       N636   2.089       .  S
Cu634       N642   2.089       .  S
N635        N636   1.321       .  A
N635        C639   1.346       .  A
N636        C637   1.348       .  A
C637        C638   1.392       .  A
C637        H640   1.081       .  S
C638        C639   1.391       .  A
C638        C773   1.497       .  S
C639        H641   1.081       .  S
N642        N643   1.322       .  A
N642        C646   1.346       .  A
N643        C644   1.347       .  A
C644        C645   1.391       .  A
C644        H647   1.081       .  S
C645        C646   1.391       .  A
C645        C650   1.496       .  S
C646        H648   1.081       .  S
C649        C650   1.413       .  A
C649        C654   1.405       .  A
C649        F656   1.357       .  S
C650        C651   1.412       .  A
C651        C652   1.399       .  A
C651        F658   1.356       .  S
C652        C653   1.404       .  A
C652        F657   1.359       .  S
C653        C654   1.403       .  A
C654        F655   1.358       .  S
C659        C660   1.406       .  A
C659        C664   1.401       .  A
C659        F666   1.358       .  S
C660        C661   1.406       .  A
C661        C662   1.401       .  A
C661        F668   1.358       .  S
C662        C663   1.404       .  A
C662        F667   1.358       .  S
C663        C664   1.405       .  A
C664        F665   1.358       .  S
C669        C670   1.408       .  A
C670        C671   1.407       .  A
C671        C672   1.410       .  A
C671        F678   1.355       .  S
C672        F677   1.357       .  S
C673        C674   1.405       .  A
C674        F675   1.357       .  S
C679        C680   1.404       .  A
C679        C684   1.399       .  A
C679        F686   1.358   1_554  S
C680        C681   1.406       .  A
C681        F688   1.357       .  S
C682        C683   1.405       .  A
C682        F687   1.358       .  S
C684        F685   1.358       .  S
C689        C690   1.408       .  A
C689        C694   1.410       .  A
C689        F696   1.355       .  S
C690        C691   1.408       .  A
C691        C692   1.399       .  A
C691        F698   1.356       .  S
C692        C693   1.407       .  A
C692        F697   1.357       .  S
C693        C694   1.413       .  A
C694        F695   1.357       .  S
C699        C700   1.410       .  A
C699        C704   1.405       .  A
C699        F706   1.357       .  S
C700        C701   1.410       .  A
C701        C702   1.401       .  A
C701        F708   1.357       .  S
C702        C703   1.406       .  A
C702        F707   1.358       .  S
C703        C704   1.405       .  A
C704        F705   1.357       .  S
C709        C710   1.404       .  A
C709        C714   1.409       .  A
C709        F716   1.357       .  S
C710        C711   1.405       .  A
C711        C712   1.398       .  A
C711        F718   1.359       .  S
C712        C713   1.411       .  A
C712        F717   1.356       .  S
C713        C714   1.413       .  A
C714        F715   1.357       .  S
C719        C720   1.406       .  A
C719        C724   1.396       .  A
C719        F726   1.358       .  S
C720        C721   1.408       .  A
C721        C722   1.409       .  A
C721        F728   1.357       .  S
C722        C723   1.408       .  A
C722        F727   1.357       .  S
C723        C724   1.404       .  A
C724        F725   1.358       .  S
C729        C730   1.405       .  A
C729        C734   1.404       .  A
C729        F736   1.358       .  S
C730        C731   1.407       .  A
C731        C732   1.402       .  A
C731        F738   1.358       .  S
C732        C733   1.407       .  A
C732        F737   1.357       .  S
C733        C734   1.410       .  A
C734        F735   1.357       .  S
C739        C740   1.404       .  A
C739        C744   1.398       .  A
C740        C741   1.403       .  A
C741        C742   1.406       .  A
C741        F748   1.358       .  S
C742        C743   1.412       .  A
C742        F747   1.357       .  S
C743        C744   1.410       .  A
C744        F745   1.357       .  S
C749        C750   1.405       .  A
C749        C754   1.405       .  A
C749        F756   1.358       .  S
C750        C751   1.406       .  A
C751        C752   1.398       .  A
C751        F758   1.358       .  S
C752        C753   1.402       .  A
C752        F757   1.358       .  S
C753        C754   1.406       .  A
C754        F755   1.358       .  S
C759        C760   1.407       .  A
C759        C764   1.403       .  A
C759        F766   1.357       .  S
C760        C761   1.412       .  A
C761        C762   1.407       .  A
C761        F768   1.357       .  S
C762        C763   1.406       .  A
C762        F767   1.357       .  S
C763        C764   1.408       .  A
C764        F765   1.357       .  S
C769        C774   1.405       .  A
C769        F776   1.358       .  S
C770        C771   1.405       .  A
C771        C772   1.402       .  A
C771        F778   1.358       .  S
C772        C773   1.411       .  A
C772        F777   1.356       .  S
C774        F775   1.357       .  S
C779        C780   1.406       .  A
C779        C784   1.402       .  A
C779        F786   1.358       .  S
C780        C781   1.405       .  A
C781        C782   1.401       .  A
C781        F788   1.357       .  S
C782        C783   1.404       .  A
C782        F787   1.358       .  S
C783        C784   1.407       .  A
C784        F785   1.358       .  S
C789        C790   1.411       .  A
C789        C794   1.409       .  A
C789        F796   1.357       .  S
C790        C791   1.406       .  A
C791        C792   1.398       .  A
C791        F798   1.358       .  S
C792        C793   1.408       .  A
C793        C794   1.407       .  A
C794        F795   1.355       .  S
C799        C800   1.404       .  A
C799        C804   1.399       .  A
C800        C801   1.403       .  A
C801        C802   1.406       .  A
C801        F808   1.358       .  S
C802        C803   1.415       .  A
C802        F807   1.357       .  S
C803        C804   1.413       .  A
C804        F805   1.356       .  S
C809        C810   1.408       .  A
C809        C814   1.407       .  A
C809        F816   1.357       .  S
C810        C811   1.404       .  A
C811        C812   1.394       .  A
C811        F818   1.358       .  S
C812        C813   1.404       .  A
C812        F817   1.358       .  S
C813        C814   1.406       .  A
C814        F815   1.357       .  S
C819        C820   1.405       .  A
C819        C824   1.400       .  A
C819        F826   1.358       .  S
C820        C821   1.404       .  A
C821        C822   1.405       .  A
C821        F828   1.358       .  S
C822        C823   1.410       .  A
C822        F827   1.356       .  S
C823        C824   1.406       .  A
C824        F825   1.357       .  S
