geometry optimzed in LAMMPS
_audit_creation_date              2020-12-01 
_audit_creation_method            'lammps2cif' 
_symmetry_space_group_name_H-M    'P1' 
_symmetry_Int_Tables_number       1 
_symmetry_cell_setting            triclinic 
loop_ 
_symmetry_equiv_pos_as_xyz 
  x,y,z 
_cell_length_a                    39.74680862 
_cell_length_b                    39.91178982723642 
_cell_length_c                    40.565393468364164 
_cell_angle_alpha                 89.91553477897625 
_cell_angle_beta                  90.5122278186382 
_cell_angle_gamma                 89.70994279060245 
loop_ 
_atom_site_label 
_atom_site_type_symbol 
_atom_site_fract_x 
_atom_site_fract_y 
_atom_site_fract_z 
_atom_site_charge 
O1          O  0.44881710  0.98202722  0.41885381    -0.78600
C2          C  0.52008965  0.06785721  0.41933382     0.82500
O3          O  0.54411894  0.95428278  0.49100227    -0.79700
O4          O  0.53407109  0.06817437  0.52291422    -0.81200
O5          O  0.41420425  0.05283152  0.51365662    -0.81000
O6          O  0.40883554  0.98865591  0.45635751    -0.79600
Zn7        Zn  0.49150437  0.00000211  0.44033352     1.55700
O8          O  0.45532649  0.09016171  0.50897701    -0.81000
Cd9        Cd  0.43539291  0.00868215  0.49595463     1.59700
Cd10       Cd  0.51296265  0.98682987  0.51775936     1.59600
O11         O  0.43032736  0.97390487  0.53273884    -0.81000
O12         O  0.48408315  0.01380601  0.48573628    -1.91500
Cd13       Cd  0.49492753  0.06220968  0.49017090     1.59900
O14         O  0.48188682  0.95752485  0.54804070    -0.80900
O15         O  0.51233856  0.08162326  0.44656356    -0.79600
C16         C  0.54409965  0.94723827  0.46027155     0.82900
C17         C  0.41851786  0.97817907  0.42826746     0.82600
O18         O  0.51316254  0.03722607  0.41344532    -0.78500
C19         C  0.42571575  0.08232583  0.51796586     0.83400
O20         O  0.52460473  0.96213969  0.43989057    -0.78600
C21         C  0.44983390  0.95574527  0.55036224     0.83500
C22         C  0.55005991  0.04990114  0.54354013     0.83900
O23         O  0.54411131  0.01853413  0.54639168    -0.81100
O24         O  0.94747383  0.56975695  0.49369182    -0.78600
C25         C  0.02462949  0.56038446  0.57164857     0.82500
O26         O  0.04032388  0.49773043  0.45514049    -0.79700
O27         O  0.02802362  0.45419038  0.56882284    -0.81200
O28         O  0.91187409  0.46845135  0.54856676    -0.81000
O29         O  0.90810675  0.53054270  0.49044928    -0.79600
Zn30       Zn  0.99000343  0.54467528  0.50596164     1.55700
O31         O  0.95038408  0.47440392  0.58844372    -0.81000
Cd32       Cd  0.93424930  0.48841222  0.50707888     1.59700
Cd33       Cd  0.01243676  0.46795242  0.48789150     1.59600
O34         O  0.93014549  0.45263144  0.47093722    -0.81000
O35         O  0.98267730  0.49805772  0.51572767    -1.91500
Cd36       Cd  0.99249112  0.49141446  0.56368487     1.59900
O37         O  0.98216467  0.43534410  0.45932757    -0.80900
O38         O  0.01523661  0.53321283  0.58531870    -0.79600
C39         C  0.03851430  0.52933156  0.45007508     0.82900
C40         C  0.91751761  0.56080586  0.48667980     0.82600
O41         O  0.01592388  0.56749125  0.54216596    -0.78500
C42         C  0.92149332  0.46464576  0.57843214     0.83400
O43         O  0.01954144  0.54802871  0.46721391    -0.78600
C44         C  0.95021801  0.43369178  0.45512872     0.83500
C45         C  0.04731035  0.43738904  0.55007079     0.83900
O46         O  0.04565992  0.44010504  0.51861540    -0.81100
O47         O  0.49738673  0.53184792  0.95312857    -0.78600
C48         C  0.58374501  0.46632362  0.97814324     0.82500
O49         O  0.45350188  0.44204280  0.01936941    -0.79700
O50         O  0.55912695  0.45912079  0.08116311    -0.81200
O51         O  0.54147265  0.57593902  0.05671048    -0.81000
O52         O  0.49241646  0.57415522  0.98814031    -0.79600
Zn53       Zn  0.51167086  0.49236969  0.98112069     1.55700
O54         O  0.58135459  0.53749201  0.06531067    -0.81000
Cd55       Cd  0.50364017  0.55054383  0.03238819     1.59700
Cd56       Cd  0.47989363  0.47327245  0.05263330     1.59600
O57         O  0.46185639  0.55531078  0.06040646    -0.81000
O58         O  0.51355018  0.50199990  0.02765211    -1.91500
Cd59       Cd  0.56043927  0.49444289  0.04449282     1.59900
O60         O  0.44492961  0.50485789  0.07701638    -0.80900
O61         O  0.59079202  0.47369137  0.00802262    -0.79600
C62         C  0.45694259  0.43918165  0.98817524     0.82900
C63         C  0.49014008  0.56233851  0.95907415     0.82600
O64         O  0.55519691  0.47341642  0.96543236    -0.78500
C65         C  0.57003917  0.56730397  0.06850738     0.83400
O66         O  0.47794937  0.45699471  0.97262750    -0.78600
C67         C  0.44163050  0.53683399  0.07624964     0.83500
C68         C  0.53729306  0.44009122  0.09416805     0.83900
O69         O  0.50606751  0.44165884  0.08617024    -0.81100
O70         O  0.98207497  0.90588141  0.00433718    -0.78600
C71         C  0.04182705  0.91963372  0.91076166     0.82500
O72         O  0.06862270  0.97859469  0.03552489    -0.79700
O73         O  0.05372778  0.02462509  0.92568949    -0.81200
O74         O  0.93404587  0.00145378  0.94424308    -0.81000
O75         O  0.93999009  0.94276889  0.00408565    -0.79600
Zn76       Zn  0.02064725  0.93104208  0.98241202     1.55700
O77         O  0.97359100  0.00971285  0.90667296    -0.81000
Cd78       Cd  0.96116038  0.98478341  0.98457973     1.59700
Cd79       Cd  0.03735797  0.00840988  0.00561118     1.59600
O80         O  0.95521216  0.02007818  0.02038185    -0.81000
O81         O  0.00966574  0.97810296  0.97583251    -1.91500
Cd82       Cd  0.01649233  0.98978783  0.92877417     1.59900
O83         O  0.00600460  0.03700060  0.03662694    -0.80900
O84         O  0.03407893  0.94943136  0.90224313    -0.79600
C85         C  0.07464360  0.94715023  0.03428128     0.82900
C86         C  0.95208864  0.91429091  0.01197245     0.82600
O87         O  0.03677400  0.90904311  0.94003226    -0.78500
C88         C  0.94312380  0.01191171  0.91604181     0.83400
O89         O  0.05904632  0.92792030  0.01440757    -0.78600
C90         C  0.97391401  0.03792176  0.03883711     0.83500
C91         C  0.07168362  0.04177071  0.94548926     0.83900
O92         O  0.06827581  0.03966695  0.97679514    -0.81100
C93         C  0.78898421  0.79680206  0.24225810     0.86400
C94         C  0.76471038  0.81748408  0.26364385    -0.53800
C95         C  0.74439772  0.79853429  0.28339355     0.09300
C96         C  0.75056510  0.76042268  0.28007014     0.20300
C97         C  0.80840212  0.77514355  0.26724833    -0.54500
C98         C  0.78870399  0.75560803  0.28701617     0.09400
C99         C  0.76627849  0.77246164  0.22357683    -0.54100
C100        C  0.74588432  0.75363439  0.24289552     0.10000
H101        H  0.76371096  0.84457682  0.26395352     0.14500
H102        H  0.73378191  0.74490967  0.29546081     0.00300
H103        H  0.83561375  0.77600754  0.26925995     0.14800
H104        H  0.76621925  0.77056820  0.19684950     0.14600
C105        C  0.71487896  0.26264819  0.78877189     0.86400
C106        C  0.73638055  0.28421778  0.76603743    -0.53800
C107        C  0.75460985  0.26670229  0.74354682     0.09300
C108        C  0.74922150  0.22849848  0.74526428     0.20300
C109        C  0.69293717  0.24169389  0.76498058    -0.54500
C110        C  0.71083376  0.22350716  0.74240550     0.09400
C111        C  0.73946082  0.23715662  0.80391893    -0.54100
C112        C  0.75735118  0.21902994  0.78142008     0.10000
H113        H  0.73745530  0.31135644  0.76789139     0.14500
H114        H  0.76389220  0.21402699  0.72693838     0.00300
H115        H  0.66578682  0.24048089  0.76568462     0.14800
H116        H  0.74238969  0.23385887  0.83037275     0.14600
C117        C  0.29984923  0.70598901  0.76130762     0.86400
C118        C  0.27503873  0.68737918  0.73829320    -0.53800
C119        C  0.25274581  0.70801628  0.72214446     0.09300
C120        C  0.25769630  0.74545503  0.72981680     0.20300
C121        C  0.31677460  0.73167380  0.73905987    -0.54500
C122        C  0.29510057  0.75255180  0.72270752     0.09400
C123        C  0.27699529  0.72683842  0.78385619    -0.54100
C124        C  0.25464101  0.74743965  0.76765758     0.10000
H125        H  0.27312153  0.66042381  0.73632728     0.14500
H126        H  0.23994925  0.76194122  0.71604302     0.00300
H127        H  0.34392151  0.73327999  0.73660609     0.14800
H128        H  0.27869282  0.72519910  0.81052219     0.14600
C129        C  0.28454353  0.28459491  0.78222161     0.86400
C130        C  0.26178880  0.26090218  0.80151073    -0.53800
C131        C  0.24188058  0.24067635  0.78267367     0.09300
C132        C  0.24650053  0.24634060  0.74524446     0.20300
C133        C  0.30427101  0.26188249  0.75864265    -0.54500
C134        C  0.28453555  0.24219123  0.73883136     0.09400
C135        C  0.25997079  0.30410129  0.75932685    -0.54100
C136        C  0.24023156  0.28409696  0.73985475     0.10000
H137        H  0.26219609  0.25981452  0.82825331     0.14500
H138        H  0.23039486  0.23037198  0.72932284     0.00300
H139        H  0.33152195  0.26232159  0.75699769     0.14800
H140        H  0.25765743  0.33109295  0.75822285     0.14600
C141        C  0.78700041  0.20981083  0.21735585     0.86400
C142        C  0.75996813  0.23365836  0.20249810    -0.53800
C143        C  0.74112056  0.25027453  0.22540593     0.09300
C144        C  0.75142349  0.24193373  0.26120163     0.20300
C145        C  0.80779034  0.23223260  0.24026535    -0.54500
C146        C  0.78963623  0.24914278  0.26338447     0.09400
C147        C  0.76714271  0.18686611  0.24050419    -0.54100
C148        C  0.74805493  0.20351201  0.26315230     0.10000
H149        H  0.75558219  0.23757257  0.17646067     0.14500
H150        H  0.73625810  0.25527435  0.27990799     0.00300
H151        H  0.83498539  0.23376678  0.23863716     0.14800
H152        H  0.76647887  0.15983119  0.23756585     0.14600
C153        C  0.21186273  0.72091979  0.28353686     0.86400
C154        C  0.23684373  0.74543386  0.29990387    -0.53800
C155        C  0.25538720  0.76383633  0.27814157     0.09300
C156        C  0.24724042  0.75574368  0.24179058     0.20300
C157        C  0.19058644  0.74318425  0.26035811    -0.54500
C158        C  0.20895141  0.76194885  0.23869361     0.09400
C159        C  0.23370867  0.69971099  0.26075025    -0.54100
C160        C  0.25175031  0.71747919  0.23842133     0.10000
H161        H  0.23909247  0.74927460  0.32615407     0.14500
H162        H  0.26262834  0.77010149  0.22417822     0.00300
H163        H  0.16333253  0.74416776  0.26153849     0.14800
H164        H  0.23469680  0.67254819  0.26227646     0.14600
C165        C  0.09971534  0.93161056  0.05664947    -0.03300
C166        C  0.11831688  0.90389048  0.04565667    -0.05900
C167        C  0.13867692  0.88574065  0.06745888    -0.21000
C168        C  0.14026334  0.89429738  0.10093110     0.24800
C169        C  0.12285132  0.92301605  0.11180901    -0.18500
C170        C  0.10288368  0.94170403  0.08968775    -0.08500
C171        C  0.15956883  0.87180917  0.12340882    -0.18800
C172        C  0.15149716  0.86670486  0.15521400    -0.23600
C173        C  0.16710815  0.83994766  0.17615384     0.26800
C174        C  0.15078333  0.83034989  0.20519596    -0.20300
C175        C  0.16393583  0.80476810  0.22517909    -0.10000
C176        C  0.19382084  0.78798035  0.21656272    -0.10500
C177        C  0.21016654  0.79759963  0.18751271    -0.03400
C178        C  0.19727173  0.82345801  0.16777362    -0.18600
H179        H  0.11647495  0.89575583  0.02023858     0.10500
H180        H  0.15212661  0.86400256  0.05837389     0.10600
H181        H  0.12428844  0.93082357  0.13731319     0.10300
H182        H  0.08872576  0.96300876  0.09869649     0.11400
H183        H  0.17846498  0.85614962  0.11196048     0.11500
H184        H  0.13063609  0.88070524  0.16559292     0.13400
H185        H  0.12766349  0.84266627  0.21247312     0.09900
H186        H  0.15095292  0.79873747  0.24772962     0.12000
H187        H  0.23294103  0.78510555  0.17971653     0.08600
H188        H  0.21138729  0.83037926  0.14621052     0.11300
C189        C  0.95688671  0.05959988  0.06344129    -0.03300
C190        C  0.97477593  0.07740294  0.08776309    -0.05900
C191        C  0.95750164  0.09683253  0.11111509    -0.21000
C192        C  0.92216494  0.09911784  0.11028986     0.24800
C193        C  0.90444212  0.08071509  0.08636627    -0.18500
C194        C  0.92151334  0.06147686  0.06325582    -0.08500
C195        C  0.90395105  0.11995838  0.13490706    -0.18800
C196        C  0.87388044  0.13425691  0.12783675    -0.23600
C197        C  0.85304961  0.15386804  0.15130427     0.26800
C198        C  0.82692085  0.17377014  0.13835746    -0.20300
C199        C  0.80543178  0.19167362  0.15900122    -0.10000
C200        C  0.80931303  0.19010654  0.19353408    -0.10500
C201        C  0.83527090  0.16956226  0.20647861    -0.03400
C202        C  0.85695395  0.15176991  0.18571722    -0.18600
H203        H  0.00197912  0.07613230  0.08888429     0.10500
H204        H  0.97174283  0.11035234  0.12964010     0.10600
H205        H  0.87722445  0.08055829  0.08569537     0.10300
H206        H  0.90671452  0.04779152  0.04527851     0.11400
H207        H  0.91597821  0.12426019  0.15862485     0.11500
H208        H  0.86399104  0.13223073  0.10288654     0.13400
H209        H  0.82299054  0.17545875  0.11193713     0.09900
H210        H  0.78590378  0.20627241  0.14723880     0.12000
H211        H  0.83880661  0.16737508  0.23290443     0.08600
H212        H  0.87615076  0.13596785  0.19676856     0.11300
C213        C  0.09702264  0.06428779  0.93062063    -0.03300
C214        C  0.11083678  0.09152723  0.94780792    -0.05900
C215        C  0.13225206  0.11402048  0.93168080    -0.21000
C216        C  0.14028569  0.10968517  0.89818550     0.24800
C217        C  0.12810874  0.08113775  0.88181104    -0.18500
C218        C  0.10664029  0.05898497  0.89773160    -0.08500
C219        C  0.16081917  0.13559203  0.88111876    -0.18800
C220        C  0.16249840  0.13881818  0.84795324    -0.23600
C221        C  0.18167031  0.16570194  0.83110841     0.26800
C222        C  0.19390315  0.16008763  0.79915937    -0.20300
C223        C  0.21248777  0.18473266  0.78281056    -0.10000
C224        C  0.21896756  0.21564743  0.79800029    -0.10500
C225        C  0.20503793  0.22183029  0.82925468    -0.03400
C226        C  0.18677544  0.19718300  0.84565276    -0.18600
H227        H  0.10423508  0.09606338  0.97326003     0.10500
H228        H  0.14178296  0.13543021  0.94515359     0.10600
H229        H  0.13480990  0.07560047  0.85665199     0.10300
H230        H  0.09725850  0.03768321  0.88398996     0.11400
H231        H  0.17423794  0.15328327  0.89663368     0.11500
H232        H  0.14956547  0.12122904  0.83204037     0.13400
H233        H  0.18974082  0.13623592  0.78712101     0.09900
H234        H  0.22262318  0.17910062  0.75880971     0.12000
H235        H  0.20828766  0.24581240  0.84124896     0.08600
H236        H  0.17636716  0.20308053  0.86951592     0.11300
C237        C  0.22853981  0.76761543  0.78511959    -0.03300
C238        C  0.21656926  0.75706702  0.81595181    -0.05900
C239        C  0.19211697  0.77552550  0.83248390    -0.21000
C240        C  0.17827747  0.80466208  0.81850864     0.24800
C241        C  0.18995061  0.81539775  0.78759038    -0.18500
C242        C  0.21490392  0.79705440  0.77111682    -0.08500
C243        C  0.15265348  0.82322958  0.83785173    -0.18800
C244        C  0.12921661  0.84405382  0.82489694    -0.23600
C245        C  0.10368475  0.86130198  0.84564747     0.26800
C246        C  0.09042885  0.89224979  0.83528707    -0.20300
C247        C  0.06871018  0.91042238  0.85564063    -0.10000
C248        C  0.05955236  0.89786989  0.88675575    -0.10500
C249        C  0.07098688  0.86584557  0.89607298    -0.03400
C250        C  0.09264504  0.84769633  0.87571972    -0.18600
H251        H  0.22559115  0.73415960  0.82731140     0.10500
H252        H  0.18360959  0.76667265  0.85624574     0.10600
H253        H  0.18051595  0.83823783  0.77640553     0.10300
H254        H  0.22385937  0.80634422  0.74773691     0.11400
H255        H  0.15285566  0.81868095  0.86423273     0.11500
H256        H  0.12913325  0.84941456  0.79866247     0.13400
H257        H  0.09797485  0.90303230  0.81198825     0.09900
H258        H  0.06024145  0.93494465  0.84754367     0.12000
H259        H  0.06414633  0.85522403  0.91964560     0.08600
H260        H  0.10093245  0.82318130  0.88388959     0.11300
C261        C  0.78099298  0.19191648  0.79151564    -0.03300
C262        C  0.81112675  0.18652990  0.77453023    -0.05900
C263        C  0.83402338  0.16201832  0.78538372    -0.21000
C264        C  0.82694224  0.14206599  0.81300910     0.24800
C265        C  0.79651620  0.14723920  0.82971956    -0.18500
C266        C  0.77380250  0.17177220  0.81899599    -0.08500
C267        C  0.85273103  0.11785281  0.82516948    -0.18800
C268        C  0.84515801  0.09049111  0.84315499    -0.23600
C269        C  0.87065653  0.06805621  0.85894482     0.26800
C270        C  0.86015601  0.04657113  0.88425873    -0.20300
C271        C  0.88349456  0.02722325  0.90197012    -0.10000
C272        C  0.91790936  0.02866241  0.89450607    -0.10500
C273        C  0.92824224  0.04869672  0.86800223    -0.03400
C274        C  0.90492597  0.06818544  0.85037885    -0.18600
H275        H  0.81746709  0.20191503  0.75349696     0.10500
H276        H  0.85747237  0.15879363  0.77233312     0.10600
H277        H  0.79052030  0.13319241  0.85169712     0.10300
H278        H  0.75058248  0.17506015  0.83239426     0.11400
H279        H  0.87865157  0.12353296  0.81947256     0.11500
H280        H  0.81895077  0.08494112  0.84795212     0.13400
H281        H  0.83390565  0.04559938  0.89115158     0.09900
H282        H  0.87467125  0.01181748  0.92209229     0.12000
H283        H  0.95457434  0.05024971  0.86156183     0.08600
H284        H  0.91414136  0.08340567  0.83040385     0.11300
C285        C  0.93150396  0.89223550  0.03315794    -0.03300
C286        C  0.94495223  0.86259062  0.04674317    -0.03500
C287        C  0.92790664  0.84567586  0.07180063    -0.21000
C288        C  0.89748852  0.85837702  0.08408236     0.24800
C289        C  0.88296333  0.88671200  0.06901712    -0.18500
C290        C  0.89973392  0.90337697  0.04381090    -0.08500
C291        C  0.88157131  0.84175447  0.11269070    -0.18800
C292        C  0.86414356  0.85894163  0.13563762    -0.23600
C293        C  0.84765596  0.84348007  0.16477665     0.26800
C294        C  0.85327577  0.81003365  0.17434594    -0.20300
C295        C  0.83536618  0.79610897  0.20037330    -0.10000
C296        C  0.81162920  0.81510560  0.21802121    -0.10500
C297        C  0.80721188  0.84906424  0.20941981    -0.03400
C298        C  0.82509488  0.86298232  0.18319535    -0.18600
H299        H  0.96930622  0.85330275  0.03910132     0.10500
H300        H  0.93925834  0.82348506  0.08266133     0.10600
H301        H  0.85885902  0.89634758  0.07695983     0.10300
H302        H  0.88838918  0.92592498  0.03370514     0.11400
H303        H  0.88564908  0.81503387  0.11512939     0.11500
H304        H  0.86143085  0.88589115  0.13284344     0.13400
H305        H  0.87101831  0.79410809  0.16176824     0.09900
H306        H  0.83926116  0.76984489  0.20608808     0.12000
H307        H  0.78903403  0.86481825  0.22154393     0.08600
H308        H  0.82042567  0.88891819  0.17659332     0.11300
C309        C  0.41393379  0.55434299  0.09370903    -0.03300
C310        C  0.39298266  0.53817828  0.11638616    -0.05900
C311        C  0.36840600  0.55653143  0.13348909    -0.21000
C312        C  0.36438567  0.59125064  0.12824839     0.24800
C313        C  0.38439453  0.60685427  0.10443990    -0.18500
C314        C  0.40886401  0.58877183  0.08771606    -0.08500
C315        C  0.33909405  0.61045024  0.14764493    -0.18800
C316        C  0.33986416  0.64416313  0.15116302    -0.23600
C317        C  0.31568706  0.66359725  0.17146566     0.26800
C318        C  0.32496863  0.69554136  0.18290419    -0.20300
C319        C  0.30378797  0.71378322  0.20375006    -0.10000
C320        C  0.27283391  0.70042335  0.21338493    -0.10500
C321        C  0.26265843  0.66942970  0.20022830    -0.03400
C322        C  0.28377894  0.65122306  0.17951774    -0.18600
H323        H  0.39597792  0.51165874  0.12132553     0.10500
H324        H  0.35289784  0.54370075  0.15128218     0.10600
H325        H  0.38127945  0.63301910  0.09821535     0.10300
H326        H  0.42392624  0.60208376  0.06989680     0.11400
H327        H  0.32042691  0.59602533  0.16077578     0.11500
H328        H  0.36032434  0.65829798  0.14059105     0.13400
H329        H  0.34916659  0.70597161  0.17653019     0.09900
H330        H  0.31225225  0.73762363  0.21334419     0.12000
H331        H  0.23834512  0.65902932  0.20617274     0.08600
H332        H  0.27492723  0.62754759  0.16995314     0.11300
C333        C  0.32569266  0.68547447  0.78102418    -0.03300
C334        C  0.32860803  0.65034407  0.77909457    -0.05900
C335        C  0.35245148  0.63308652  0.79833250    -0.21000
C336        C  0.37419894  0.65024269  0.81987612     0.24800
C337        C  0.37164238  0.68537330  0.82153580    -0.18500
C338        C  0.34784456  0.70259362  0.80235338    -0.08500
C339        C  0.39781577  0.63023730  0.84100409    -0.18800
C340        C  0.42209544  0.64331530  0.86053761    -0.23600
C341        C  0.44263571  0.62271310  0.88384199     0.26800
C342        C  0.45467828  0.63753470  0.91298486    -0.20300
C343        C  0.47137229  0.61828760  0.93697029    -0.10000
C344        C  0.47687569  0.58384319  0.93202812    -0.10500
C345        C  0.46672365  0.56949195  0.90191915    -0.03400
C346        C  0.44977860  0.58867496  0.87808589    -0.18600
H347        H  0.31274670  0.63568974  0.76304539     0.10500
H348        H  0.35374861  0.60603211  0.79649195     0.10600
H349        H  0.38729389  0.69993975  0.83792795     0.10300
H350        H  0.34643135  0.72962534  0.80442319     0.11400
H351        H  0.39397199  0.60333656  0.84128376     0.11500
H352        H  0.42589415  0.67013628  0.86143603     0.13400
H353        H  0.44996607  0.66382940  0.91780496     0.09900
H354        H  0.47910762  0.63018798  0.95976298     0.12000
H355        H  0.47079451  0.54308823  0.89719271     0.08600
H356        H  0.44208116  0.57665362  0.85537874     0.11300
C357        C  0.69748006  0.28381765  0.81504889    -0.03300
C358        C  0.66243437  0.28397849  0.81983947    -0.05900
C359        C  0.64776606  0.30590554  0.84246115    -0.21000
C360        C  0.66749592  0.32818906  0.86101112     0.24800
C361        C  0.70262748  0.32708608  0.85743906    -0.18500
C362        C  0.71733262  0.30496175  0.83502932    -0.08500
C363        C  0.65005443  0.35358326  0.88167167    -0.18800
C364        C  0.66521578  0.37363086  0.90399636    -0.23600
C365        C  0.64629047  0.39998831  0.92196184     0.26800
C366        C  0.65531069  0.40809739  0.95452134    -0.20300
C367        C  0.63614656  0.43117031  0.97252359    -0.10000
C368        C  0.60786634  0.44681893  0.95804281    -0.10500
C369        C  0.60033729  0.44026981  0.92473569    -0.03400
C370        C  0.61931415  0.41720318  0.90690683    -0.18600
H371        H  0.64583137  0.26776437  0.80618879     0.10500
H372        H  0.62064306  0.30595580  0.84492903     0.10600
H373        H  0.71891793  0.34390336  0.87089421     0.10300
H374        H  0.74443347  0.30517198  0.83239188     0.11400
H375        H  0.62301194  0.35589623  0.87814017     0.11500
H376        H  0.69152441  0.37003865  0.91038414     0.13400
H377        H  0.67638154  0.39556948  0.96644834     0.09900
H378        H  0.64261484  0.43564691  0.99812258     0.12000
H379        H  0.57900295  0.45216512  0.91263550     0.08600
H380        H  0.61256542  0.41263474  0.88140239     0.11300
C381        C  0.55004404  0.41491869  0.11815274    -0.03300
C382        C  0.53849199  0.38172320  0.11782843    -0.05900
C383        C  0.55641069  0.35654155  0.13488501    -0.21000
C384        C  0.58582222  0.36417489  0.15295638     0.24800
C385        C  0.59596623  0.39787374  0.15474786    -0.18500
C386        C  0.57830608  0.42279156  0.13760509    -0.08500
C387        C  0.60743057  0.33640101  0.16629071    -0.18800
C388        C  0.63171274  0.34106548  0.18937870    -0.23600
C389        C  0.65773503  0.31568205  0.19911381     0.26800
C390        C  0.67774956  0.32197327  0.22716374    -0.20300
C391        C  0.70451540  0.30068452  0.23581588    -0.10000
C392        C  0.71218058  0.27260138  0.21645983    -0.10500
C393        C  0.69189080  0.26591485  0.18862315    -0.03400
C394        C  0.66506566  0.28720110  0.17996713    -0.18600
H395        H  0.51706954  0.37486852  0.10263804     0.10500
H396        H  0.54807209  0.33082802  0.13284327     0.10600
H397        H  0.61876028  0.40510187  0.16752059     0.10300
H398        H  0.58788078  0.44815507  0.13815095     0.11400
H399        H  0.60369512  0.31168717  0.15586059     0.11500
H400        H  0.63324138  0.36508137  0.20174176     0.13400
H401        H  0.67302105  0.34386493  0.24221844     0.09900
H402        H  0.71976318  0.30680377  0.25718940     0.12000
H403        H  0.69669315  0.24415070  0.17345184     0.08600
H404        H  0.65088320  0.28160824  0.15781557     0.11300
C405        C  0.72063093  0.73075816  0.22803277    -0.03300
C406        C  0.71544576  0.69848631  0.24059784    -0.05900
C407        C  0.69483469  0.67583401  0.22346220    -0.21000
C408        C  0.67883294  0.68510870  0.19365574     0.24800
C409        C  0.68300358  0.71809525  0.18208294    -0.18500
C410        C  0.70343172  0.74055531  0.19916514    -0.08500
C411        C  0.65997499  0.65919732  0.17450001    -0.18800
C412        C  0.64080922  0.66590985  0.14759297    -0.23600
C413        C  0.62369037  0.63989701  0.12732328     0.26800
C414        C  0.59629215  0.64960735  0.10737961    -0.20300
C415        C  0.57939199  0.62620159  0.08782457    -0.10000
C416        C  0.58975215  0.59245984  0.08736538    -0.10500
C417        C  0.61784769  0.58286915  0.10653830    -0.03400
C418        C  0.63467372  0.60631123  0.12630450    -0.18600
H419        H  0.72848150  0.69030757  0.26276879     0.10500
H420        H  0.69212566  0.65066439  0.23306105     0.10600
H421        H  0.67174518  0.72673241  0.15929033     0.10300
H422        H  0.70647853  0.76555063  0.18922486     0.11400
H423        H  0.66213116  0.63350674  0.18306969     0.11500
H424        H  0.63625450  0.69162360  0.14022715     0.13400
H425        H  0.58759532  0.67538073  0.10725971     0.09900
H426        H  0.55796269  0.63454654  0.07326179     0.12000
H427        H  0.62654479  0.55711294  0.10667658     0.08600
H428        H  0.65640415  0.59803825  0.14038503     0.11300
C429        C  0.43658678  0.41504503  0.96855619    -0.03300
C430        C  0.41130615  0.39518933  0.98261511    -0.05900
C431        C  0.39189130  0.37366960  0.96272914    -0.21000
C432        C  0.39716639  0.37200809  0.92850842     0.24800
C433        C  0.42331170  0.39085844  0.91487670    -0.18500
C434        C  0.44258430  0.41208125  0.93452489    -0.08500
C435        C  0.37545681  0.35072045  0.90705157    -0.18800
C436        C  0.36752620  0.36007110  0.87592692    -0.23600
C437        C  0.34652480  0.34025839  0.85266166     0.26800
C438        C  0.32913261  0.35728256  0.82744894    -0.20300
C439        C  0.30966704  0.33991091  0.80432107    -0.10000
C440        C  0.30735574  0.30472342  0.80548395    -0.10500
C441        C  0.32632233  0.28762176  0.82993285    -0.03400
C442        C  0.34524409  0.30512640  0.85353275    -0.18600
H443        H  0.40628059  0.39658970  0.00876695     0.10500
H444        H  0.37220288  0.35896437  0.97391254     0.10600
H445        H  0.42905210  0.38921360  0.88889045     0.10300
H446        H  0.46220484  0.42640117  0.92276494     0.11400
H447        H  0.36473750  0.32810066  0.91740467     0.11500
H448        H  0.37564494  0.38447482  0.86727178     0.13400
H449        H  0.33041440  0.38434112  0.82575093     0.09900
H450        H  0.29698105  0.35453420  0.78560406     0.12000
H451        H  0.32589674  0.26051486  0.83117003     0.08600
H452        H  0.35931821  0.29111762  0.87194339     0.11300
C453        C  0.22294509  0.69482830  0.70416107    -0.03300
C454        C  0.19068237  0.70695401  0.71164871    -0.05900
C455        C  0.16204437  0.69202139  0.69786477    -0.21000
C456        C  0.16511459  0.66532603  0.67560252     0.24800
C457        C  0.19750924  0.65380611  0.66735963    -0.18500
C458        C  0.22612767  0.66824497  0.68175520    -0.08500
C459        C  0.13422853  0.64879092  0.66270292    -0.18800
C460        C  0.13224342  0.63620468  0.63201625    -0.23600
C461        C  0.10177475  0.61954519  0.61846055     0.26800
C462        C  0.09471394  0.62278071  0.58472260    -0.20300
C463        C  0.06822531  0.60513822  0.57020479    -0.10000
C464        C  0.04861054  0.58298126  0.58890111    -0.10500
C465        C  0.05521529  0.58015325  0.62293617    -0.03400
C466        C  0.08137319  0.59854801  0.63767872    -0.18600
H467        H  0.18753702  0.72707826  0.72925853     0.10500
H468        H  0.13739910  0.70119373  0.70475818     0.10600
H469        H  0.20072488  0.63284691  0.65075856     0.10300
H470        H  0.25075254  0.65836159  0.67576797     0.11400
H471        H  0.11212570  0.64843103  0.67826062     0.11500
H472        H  0.15325890  0.63969490  0.61542987     0.13400
H473        H  0.11016767  0.63862252  0.56938073     0.09900
H474        H  0.06421417  0.60765914  0.54387167     0.12000
H475        H  0.04079687  0.56307343  0.63794303     0.08600
H476        H  0.08661067  0.59511490  0.66370306     0.11300
C477        C  0.19053791  0.69878898  0.30589264    -0.03300
C478        C  0.19064851  0.70150602  0.34055111    -0.05900
C479        C  0.17174509  0.67959718  0.35976741    -0.21000
C480        C  0.15275014  0.65408520  0.34511865     0.24800
C481        C  0.15209781  0.65136591  0.31065052    -0.18500
C482        C  0.17040208  0.67372488  0.29132083    -0.08500
C483        C  0.13170375  0.63266734  0.36635735    -0.18800
C484        C  0.12393363  0.60061174  0.35942452    -0.23600
C485        C  0.10103766  0.58132769  0.38090899     0.26800
C486        C  0.10704335  0.54722899  0.38750236    -0.20300
C487        C  0.08632225  0.52961866  0.40934294    -0.10000
C488        C  0.05907399  0.54587031  0.42449140    -0.10500
C489        C  0.05232412  0.57956648  0.41642688    -0.03400
C490        C  0.07297869  0.59702227  0.39495519    -0.18600
H491        H  0.20473390  0.72045806  0.35340541     0.10500
H492        H  0.17205430  0.68253097  0.38632064     0.10600
H493        H  0.13680402  0.63258427  0.29857524     0.10300
H494        H  0.16924292  0.67117184  0.26475279     0.11400
H495        H  0.12292691  0.64361394  0.38926659     0.11500
H496        H  0.13530788  0.58809393  0.33851172     0.13400
H497        H  0.12835526  0.53455397  0.37657477     0.09900
H498        H  0.09211063  0.50369542  0.41501036     0.12000
H499        H  0.03122826  0.59279750  0.42713139     0.08600
H500        H  0.06700677  0.62294547  0.38942775     0.11300
C501        C  0.89949260  0.44628447  0.60157833    -0.03300
C502        C  0.90888046  0.44259689  0.63487322    -0.05900
C503        C  0.89081739  0.42147270  0.65566946    -0.21000
C504        C  0.86335983  0.40310281  0.64358789     0.24800
C505        C  0.85298701  0.40776925  0.61067665    -0.18500
C506        C  0.87081092  0.42926342  0.58992265    -0.08500
C507        C  0.84592886  0.37986061  0.66628748    -0.18800
C508        C  0.83155576  0.35089274  0.65646354    -0.23600
C509        C  0.81479961  0.32696394  0.67936449     0.26800
C510        C  0.79395080  0.30177036  0.66620872    -0.20300
C511        C  0.77579535  0.28045520  0.68699872    -0.10000
C512        C  0.77809461  0.28416055  0.72128056    -0.10500
C513        C  0.80039638  0.30785609  0.73446575    -0.03400
C514        C  0.81878049  0.32878978  0.71386121    -0.18600
H515        H  0.93075257  0.45535064  0.64470547     0.10500
H516        H  0.89898932  0.41864252  0.68107504     0.10600
H517        H  0.83121086  0.39483123  0.60092045     0.10300
H518        H  0.86277009  0.43163951  0.56444538     0.11400
H519        H  0.84638866  0.38669390  0.69209197     0.11500
H520        H  0.83173752  0.34447866  0.63046066     0.13400
H521        H  0.79080216  0.29932162  0.63977470     0.09900
H522        H  0.75867415  0.26237528  0.67632882     0.12000
H523        H  0.80295201  0.31073041  0.76092749     0.08600
H524        H  0.83563766  0.34645060  0.72539156     0.11300
C525        C  0.07242885  0.41486465  0.56630232    -0.03300
C526        C  0.10252914  0.40542464  0.55082632    -0.05900
C527        C  0.12734410  0.38721228  0.56826977    -0.21000
C528        C  0.12227570  0.37749271  0.60123496     0.24800
C529        C  0.09186099  0.38650223  0.61636013    -0.18500
C530        C  0.06737764  0.40484198  0.59915179    -0.08500
C531        C  0.14971018  0.36007895  0.62013400    -0.18800
C532        C  0.14361535  0.33993453  0.64621537    -0.23600
C533        C  0.16999364  0.32468349  0.66805768     0.26800
C534        C  0.16110208  0.29756811  0.68833300    -0.20300
C535        C  0.18407315  0.28400677  0.71115466    -0.10000
C536        C  0.21628298  0.29773888  0.71475452    -0.10500
C537        C  0.22543659  0.32468359  0.69437367    -0.03400
C538        C  0.20262600  0.33796445  0.67116748    -0.18600
H539        H  0.10737256  0.41309877  0.52570392     0.10500
H540        H  0.15069280  0.38097477  0.55610292     0.10600
H541        H  0.08727727  0.38057258  0.64195059     0.10300
H542        H  0.04458491  0.41179539  0.61194531     0.11400
H543        H  0.17538097  0.36384540  0.61209404     0.11500
H544        H  0.11772182  0.33390190  0.65197419     0.13400
H545        H  0.13608039  0.28702361  0.68675561     0.09900
H546        H  0.17632603  0.26337130  0.72665723     0.12000
H547        H  0.25029516  0.33551578  0.69643272     0.08600
H548        H  0.21033250  0.35922953  0.65657006     0.11300
C549        C  0.89402710  0.58570897  0.47167843    -0.03300
C550        C  0.86276985  0.57568737  0.45854274    -0.05900
C551        C  0.84314759  0.59799504  0.43974127    -0.21000
C552        C  0.85451747  0.63057438  0.43337962     0.24800
C553        C  0.88469179  0.64127713  0.44823942    -0.18500
C554        C  0.90422216  0.61909108  0.46713508    -0.08500
C555        C  0.83529149  0.65237952  0.41009602    -0.18800
C556        C  0.85091470  0.67345781  0.38933850    -0.23600
C557        C  0.83340786  0.69307824  0.36313729     0.26800
C558        C  0.85138753  0.70138765  0.33476384    -0.20300
C559        C  0.83652112  0.72060422  0.30978613    -0.10000
C560        C  0.80340239  0.73287930  0.31282202    -0.10500
C561        C  0.78519511  0.72410201  0.34113415    -0.03400
C562        C  0.80001866  0.70443017  0.36606206    -0.18600
H563        H  0.85410158  0.55020408  0.46159458     0.10500
H564        H  0.81979780  0.58928719  0.42885443     0.10600
H565        H  0.89358410  0.66661963  0.44475987     0.10300
H566        H  0.92793145  0.62780846  0.47719711     0.11400
H567        H  0.80836405  0.64851291  0.40768595     0.11500
H568        H  0.87822621  0.67443304  0.38971124     0.13400
H569        H  0.87707324  0.69277134  0.33178727     0.09900
H570        H  0.85121123  0.72567479  0.28804592     0.12000
H571        H  0.75981246  0.73299068  0.34461132     0.08600
H572        H  0.78562574  0.69895501  0.38792304     0.11300
C573        C  0.93516645  0.40950749  0.43129524    -0.03300
C574        C  0.95456784  0.38490710  0.41539138    -0.05900
C575        C  0.93945824  0.36253312  0.39305169    -0.21000
C576        C  0.90467124  0.36409584  0.38633140     0.24800
C577        C  0.88546142  0.38896766  0.40198223    -0.18500
C578        C  0.90044594  0.41117456  0.42418347    -0.08500
C579        C  0.88932366  0.34083743  0.36168431    -0.18800
C580        C  0.85636871  0.33251303  0.36164538    -0.23600
C581        C  0.83992080  0.31113742  0.33608419     0.26800
C582        C  0.80952679  0.29501494  0.34353267    -0.20300
C583        C  0.79286639  0.27534854  0.31992614    -0.10000
C584        C  0.80608314  0.27159594  0.28814448    -0.10500
C585        C  0.83601621  0.28858782  0.28043495    -0.03400
C586        C  0.85275546  0.30801001  0.30405805    -0.18600
H587        H  0.98134346  0.38293038  0.42020783     0.10500
H588        H  0.95496505  0.34387372  0.38105316     0.10600
H589        H  0.85891145  0.39197705  0.39663006     0.10300
H590        H  0.88466906  0.43002200  0.43553869     0.11400
H591        H  0.90592931  0.32978942  0.34355248     0.11500
H592        H  0.84062134  0.34099602  0.38172601     0.13400
H593        H  0.79880542  0.29733349  0.36788419     0.09900
H594        H  0.77009272  0.26249893  0.32688274     0.12000
H595        H  0.84647850  0.28721813  0.25593570     0.08600
H596        H  0.87531769  0.32106073  0.29685667     0.11300
C597        C  0.43400976  0.93162626  0.57340039    -0.03300
C598        C  0.45301556  0.90701139  0.59004925    -0.05900
C599        C  0.43713902  0.88344385  0.61025312    -0.21000
C600        C  0.40199272  0.88382959  0.61407881     0.24800
C601        C  0.38311747  0.90890478  0.59796217    -0.18500
C602        C  0.39890517  0.93236690  0.57785138    -0.08500
C603        C  0.38608465  0.85885754  0.63627518    -0.18800
C604        C  0.35325541  0.85027374  0.63460597    -0.23600
C605        C  0.33750138  0.82638456  0.65801472     0.26800
C606        C  0.30860750  0.80854908  0.64832892    -0.20300
C607        C  0.29379029  0.78536239  0.66973819    -0.10000
C608        C  0.30769932  0.77969807  0.70115818    -0.10500
C609        C  0.33560748  0.79863137  0.71135216    -0.03400
C610        C  0.35023889  0.82180612  0.69015055    -0.18600
H611        H  0.48004619  0.90569981  0.58716544     0.10500
H612        H  0.45234784  0.86464424  0.62273029     0.10600
H613        H  0.35620642  0.91094982  0.60116502     0.10300
H614        H  0.38342544  0.95117434  0.56572536     0.11400
H615        H  0.40245373  0.84644044  0.65408171     0.11500
H616        H  0.33750636  0.86000448  0.61478171     0.13400
H617        H  0.29795675  0.81200895  0.62388117     0.09900
H618        H  0.27230456  0.77102616  0.66134478     0.12000
H619        H  0.34631016  0.79529392  0.73579506     0.08600
H620        H  0.37142310  0.83615452  0.69914710     0.11300
C621        C  0.53994092  0.08755693  0.39538966    -0.03300
C622        C  0.54364807  0.12228720  0.39974863    -0.05900
C623        C  0.56672150  0.14029491  0.38105590    -0.21000
C624        C  0.58707569  0.12402219  0.35794020     0.24800
C625        C  0.58230412  0.08955757  0.35229688    -0.18500
C626        C  0.55886279  0.07152590  0.37080496    -0.08500
C627        C  0.61296883  0.14394609  0.34048727    -0.18800
C628        C  0.64235763  0.13090920  0.32999621    -0.23600
C629        C  0.66947835  0.15106158  0.31438617     0.26800
C630        C  0.70198552  0.13721078  0.31235982    -0.20300
C631        C  0.72787726  0.15458878  0.29670074    -0.10000
C632        C  0.72187192  0.18634056  0.28283260    -0.10500
C633        C  0.68958435  0.20049566  0.28527709    -0.03400
C634        C  0.66360723  0.18302441  0.30061714    -0.18600
H635        H  0.52945156  0.13545110  0.41840300     0.10500
H636        H  0.56957735  0.16687924  0.38558003     0.10600
H637        H  0.59682686  0.07642782  0.33389442     0.10300
H638        H  0.55663601  0.04479580  0.36685130     0.11400
H639        H  0.60862462  0.17073200  0.33889686     0.11500
H640        H  0.64760140  0.10455264  0.33445149     0.13400
H641        H  0.70730302  0.11266873  0.32264613     0.09900
H642        H  0.75254044  0.14306940  0.29514489     0.12000
H643        H  0.68394941  0.22452645  0.27403663     0.08600
H644        H  0.63887075  0.19436338  0.30058207     0.11300
C645        C  0.57605570  0.06656735  0.56423832    -0.03300
C646        C  0.59190443  0.09546337  0.55218035    -0.05900
C647        C  0.61409337  0.11370782  0.57199119    -0.21000
C648        C  0.62081465  0.10398818  0.60464223     0.24800
C649        C  0.60593647  0.07425939  0.61647113    -0.18500
C650        C  0.58385506  0.05568394  0.59636876    -0.08500
C651        C  0.64290866  0.12612021  0.62515611    -0.18800
C652        C  0.64394020  0.12568727  0.65839515    -0.23600
C653        C  0.66252863  0.15068388  0.67896158     0.26800
C654        C  0.65239047  0.15516734  0.71170289    -0.20300
C655        C  0.66801078  0.17878887  0.73198404    -0.10000
C656        C  0.69458498  0.19845098  0.72024132    -0.10500
C657        C  0.70561856  0.19342366  0.68779668    -0.03400
C658        C  0.68966529  0.16989606  0.66724689    -0.18600
H659        H  0.58677596  0.10430623  0.52737101     0.10500
H660        H  0.62536866  0.13613341  0.56195330     0.10600
H661        H  0.61107845  0.06521142  0.64113517     0.10300
H662        H  0.57209345  0.03347052  0.60628003     0.11400
H663        H  0.65668188  0.14541973  0.61221387     0.11500
H664        H  0.62828374  0.10803115  0.67149014     0.13400
H665        H  0.63192217  0.14054866  0.72161211     0.09900
H666        H  0.65948073  0.18135364  0.75713211     0.12000
H667        H  0.72623671  0.20797643  0.67817457     0.08600
H668        H  0.69893990  0.16665932  0.64247302     0.11300
C669        C  0.40512034  0.10738454  0.53606845    -0.03300
C670        C  0.41672924  0.14028413  0.54088470    -0.05900
C671        C  0.40004767  0.16210531  0.56238356    -0.21000
C672        C  0.37160768  0.15152318  0.57984008     0.24800
C673        C  0.35879137  0.11932589  0.57335517    -0.18500
C674        C  0.37539692  0.09756446  0.55184410    -0.08500
C675        C  0.35658450  0.17441378  0.60495416    -0.18800
C676        C  0.33723849  0.16360501  0.63003294    -0.23600
C677        C  0.32358652  0.18526226  0.65681963     0.26800
C678        C  0.29754906  0.17255790  0.67639636    -0.20300
C679        C  0.28482749  0.19098991  0.70288299    -0.10000
C680        C  0.29825266  0.22238621  0.71086104    -0.10500
C681        C  0.32422967  0.23529678  0.69128929    -0.03400
C682        C  0.33675153  0.21702547  0.66454309    -0.18600
H683        H  0.43940125  0.14882106  0.52895448     0.10500
H684        H  0.41018757  0.18693569  0.56634757     0.10600
H685        H  0.33613340  0.11051116  0.58497899     0.10300
H686        H  0.36553477  0.07253992  0.54852852     0.11400
H687        H  0.36299806  0.20073041  0.60329892     0.11500
H688        H  0.33124455  0.13720477  0.63173367     0.13400
H689        H  0.28701938  0.14811742  0.67123311     0.09900
H690        H  0.26490082  0.18036259  0.71747375     0.12000
H691        H  0.33470458  0.25973827  0.69648788     0.08600
H692        H  0.35716773  0.22765558  0.65063605     0.11300
C693        C  0.71798514  0.81369150  0.30458527    -0.03300
C694        C  0.70028328  0.84229371  0.29378810    -0.05900
C695        C  0.67559946  0.85689455  0.31343853    -0.21000
C696        C  0.66826249  0.84362563  0.34455862     0.24800
C697        C  0.68561400  0.81479692  0.35540027    -0.18500
C698        C  0.71012625  0.79987708  0.33546013    -0.08500
C699        C  0.64144160  0.85995443  0.36414682    -0.18800
C700        C  0.64081356  0.86048010  0.39736211    -0.23600
C701        C  0.61474066  0.87977381  0.41546700     0.26800
C702        C  0.62311991  0.89591630  0.44517678    -0.20300
C703        C  0.59970048  0.91680364  0.46085951    -0.10000
C704        C  0.56753425  0.92178237  0.44701319    -0.10500
C705        C  0.55865795  0.90417267  0.41828577    -0.03400
C706        C  0.58185353  0.88320692  0.40284169    -0.18600
H707        H  0.70512055  0.85317264  0.26984082     0.10500
H708        H  0.66229718  0.87884487  0.30434942     0.10600
H709        H  0.67994328  0.80347942  0.37895538     0.10300
H710        H  0.72321445  0.77790040  0.34447429     0.11400
H711        H  0.62278690  0.87444169  0.35045037     0.11500
H712        H  0.66128259  0.84911554  0.41140148     0.13400
H713        H  0.64822196  0.89342503  0.45553492     0.09900
H714        H  0.60720819  0.93018128  0.48291330     0.12000
H715        H  0.53383708  0.90710545  0.40737490     0.08600
H716        H  0.57412848  0.87011304  0.38070693     0.11300
C717        C  0.27853437  0.79116154  0.28900609    -0.03300
C718        C  0.28336440  0.81980258  0.26931826    -0.05900
C719        C  0.30284979  0.84660242  0.28087114    -0.21000
C720        C  0.31722558  0.84568145  0.31257810     0.24800
C721        C  0.31349805  0.81660973  0.33174844    -0.18500
C722        C  0.29457628  0.78965286  0.32004449    -0.08500
C723        C  0.33623214  0.87503666  0.32528592    -0.18800
C724        C  0.33475897  0.88428188  0.35720773    -0.23600
C725        C  0.35436287  0.91216598  0.37223348     0.26800
C726        C  0.34412165  0.92474784  0.40287396    -0.20300
C727        C  0.36390191  0.94786393  0.42009182    -0.10000
C728        C  0.39474392  0.95873603  0.40725525    -0.10500
C729        C  0.40434045  0.94723753  0.37590278    -0.03400
C730        C  0.38438340  0.92424081  0.35853832    -0.18600
H731        H  0.27118002  0.82218264  0.24547387     0.10500
H732        H  0.30570745  0.86859324  0.26548624     0.10600
H733        H  0.32535285  0.81460492  0.35581025     0.10300
H734        H  0.29245197  0.76767050  0.33550885     0.11400
H735        H  0.35024393  0.88995846  0.30780008     0.11500
H736        H  0.31791943  0.87076319  0.37340683     0.13400
H737        H  0.32118146  0.91584598  0.41406541     0.09900
H738        H  0.35575373  0.95594621  0.44422389     0.12000
H739        H  0.42801433  0.95492043  0.36534776     0.08600
H740        H  0.39348628  0.91478280  0.33528109     0.11300
loop_ 
_geom_bond_atom_site_label_1 
_geom_bond_atom_site_label_2 
_geom_bond_distance 
_geom_bond_site_symmetry_2 
_ccdc_geom_bond_type 
O1           C17   1.277       .  A
O1           Zn7   2.035   1_565  S
C2           O18   1.277       .  A
C2           O15   1.274       .  A
C2          C621   1.484       .  S
O3           C16   1.278       .  A
O3          Cd10   2.100       .  S
O4           C22   1.273       .  A
O4          Cd13   2.052       .  S
O5           C19   1.277       .  A
O5           Cd9   2.081       .  S
O6           C17   1.276       .  A
O6           Cd9   2.077   1_565  S
Zn7          O18   2.040       .  S
Zn7          O20   1.999   1_545  S
Zn7          O12   1.948       .  S
O8           C19   1.276       .  A
O8          Cd13   2.076       .  S
Cd9          O11   2.048   1_545  S
Cd9          O12   1.994       .  S
Cd10         O14   2.107       .  S
Cd10         O23   2.116   1_565  S
Cd10         O12   2.030   1_565  S
O11          C21   1.273       .  A
O12         Cd13   1.990       .  S
Cd13         O15   2.057       .  S
O14          C21   1.281       .  A
C16          O20   1.273       .  A
C16         C704   1.480       .  S
C17         C728   1.489       .  S
C19         C669   1.488       .  S
C21         C597   1.486       .  S
C22          O23   1.280       .  A
C22         C645   1.486       .  S
O24          C40   1.275       .  A
O24         Zn30   2.018       .  S
C25          O41   1.273       .  A
C25          O38   1.276       .  A
C25         C464   1.487       .  S
O26          C39   1.279       .  A
O26         Cd33   2.107       .  S
O27          C45   1.274       .  A
O27         Cd36   2.054   1_455  S
O28          C42   1.276       .  A
O28         Cd32   2.071       .  S
O29          C40   1.276       .  A
O29         Cd32   2.081       .  S
Zn30         O41   2.008   1_655  S
Zn30         O43   1.975   1_655  S
Zn30         O35   1.926       .  S
O31          C42   1.277       .  A
O31         Cd36   2.076       .  S
Cd32         O34   2.054       .  S
Cd32         O35   1.993       .  S
Cd33         O37   2.116   1_455  S
Cd33         O46   2.118       .  S
Cd33         O35   2.033   1_455  S
O34          C44   1.274       .  A
O35         Cd36   1.998       .  S
Cd36         O38   2.092   1_655  S
O37          C44   1.282       .  A
C39          O43   1.270       .  A
C39         C488   1.483       .  S
C40         C549   1.486       .  S
C42         C501   1.484       .  S
C44         C573   1.491       .  S
C45          O46   1.282       .  A
C45         C525   1.489       .  S
O47          C63   1.273       .  A
O47         Zn53   2.017       .  S
C48          O64   1.273       .  A
C48          O61   1.277   1_556  A
C48         C368   1.483       .  S
O49          C62   1.279   1_554  A
O49         Cd56   2.114       .  S
O50          C68   1.274       .  A
O50         Cd59   2.049       .  S
O51          C65   1.274       .  A
O51         Cd55   2.062       .  S
O52          C63   1.273       .  A
O52         Cd55   2.070   1_556  S
Zn53         O64   1.995       .  S
Zn53         O66   1.980       .  S
Zn53         O58   1.928   1_556  S
O54          C65   1.277       .  A
O54         Cd59   2.089       .  S
Cd55         O57   2.029       .  S
Cd55         O58   1.985       .  S
Cd56         O60   2.124       .  S
Cd56         O69   2.117       .  S
Cd56         O58   2.041       .  S
O57          C67   1.272       .  A
O58         Cd59   2.000       .  S
Cd59         O61   2.087       .  S
O60          C67   1.283       .  A
C62          O66   1.271       .  A
C62         C429   1.488       .  S
C63         C344   1.483       .  S
C65         C416   1.485       .  S
C67         C309   1.486       .  S
C68          O69   1.281       .  A
C68         C381   1.482       .  S
O70          C86   1.277       .  A
O70         Zn76   2.046   1_654  S
C71          O87   1.278       .  A
C71          O84   1.274       .  A
C71         C248   1.486       .  S
O72          C85   1.278       .  A
O72         Cd79   2.094   1_565  S
O73          C91   1.272       .  A
O73         Cd82   2.040   1_545  S
O74          C88   1.273       .  A
O74         Cd78   2.059   1_545  S
O75          C86   1.271       .  A
O75         Cd78   2.042   1_554  S
Zn76         O87   2.039       .  S
Zn76         O89   1.998   1_556  S
Zn76         O81   1.944       .  S
O77          C88   1.275       .  A
O77         Cd82   2.074   1_645  S
Cd78         O80   2.039   1_566  S
Cd78         O81   1.980   1_655  S
Cd79         O83   2.111       .  S
Cd79         O92   2.114   1_554  S
Cd79         O81   2.032   1_544  S
O80          C90   1.272       .  A
O81         Cd82   1.986       .  S
Cd82         O84   2.061       .  S
O83          C90   1.280   1_455  A
C85          O89   1.273       .  A
C85         C165   1.475       .  S
C86         C285   1.483       .  S
C88         C272   1.480       .  S
C90         C189   1.487       .  S
C91          O92   1.281       .  A
C91         C213   1.485       .  S
C93          C94   1.541       .  S
C93          C99   1.527       .  S
C93          C97   1.532       .  S
C93         C296   1.527       .  S
C94         H101   1.082       .  S
C94          C95   1.372       .  D
C95          C96   1.546       .  S
C95         C693   1.489       .  S
C96         C100   1.542       .  S
C96          C98   1.550       .  S
C96         H102   1.108       .  S
C97         H103   1.085       .  S
C97          C98   1.371       .  D
C98         C560   1.497       .  S
C99         H104   1.087       .  S
C99         C100   1.361       .  D
C100        C405   1.485       .  S
C105        C106   1.530       .  S
C105        C111   1.531       .  S
C105        C109   1.545       .  S
C105        C357   1.529       .  S
C106        H113   1.087       .  S
C106        C107   1.362       .  D
C107        C108   1.542       .  S
C107        C512   1.481       .  S
C108        C112   1.545       .  S
C108        C110   1.543       .  S
C108        H114   1.110       .  S
C109        H115   1.081       .  S
C109        C110   1.371       .  D
C110        C656   1.491       .  S
C111        H116   1.086       .  S
C111        C112   1.368       .  D
C112        C261   1.484       .  S
C117        C118   1.546       .  S
C117        C123   1.537       .  S
C117        C121   1.527       .  S
C117        C333   1.530       .  S
C118        H125   1.082       .  S
C118        C119   1.369       .  D
C119        C120   1.540       .  S
C119        C453   1.485       .  S
C120        C124   1.543       .  S
C120        C122   1.544       .  S
C120        H126   1.109       .  S
C121        H127   1.087       .  S
C121        C122   1.363       .  D
C122        C608   1.483       .  S
C123        H128   1.085       .  S
C123        C124   1.370       .  D
C124        C237   1.494       .  S
C129        C130   1.531       .  S
C129        C135   1.548       .  S
C129        C133   1.536       .  S
C129        C440   1.534       .  S
C130        H137   1.086       .  S
C130        C131   1.364       .  D
C131        C132   1.547       .  S
C131        C224   1.494       .  S
C132        C136   1.541       .  S
C132        C134   1.544       .  S
C132        H138   1.110       .  S
C133        H139   1.086       .  S
C133        C134   1.370       .  D
C134        C680   1.490       .  S
C135        H140   1.082       .  S
C135        C136   1.369       .  D
C136        C536   1.488       .  S
C141        C142   1.549       .  S
C141        C147   1.537       .  S
C141        C145   1.531       .  S
C141        C200   1.533       .  S
C142        H149   1.080       .  S
C142        C143   1.369       .  D
C143        C144   1.541       .  S
C143        C392   1.493       .  S
C144        C148   1.542       .  S
C144        C146   1.549       .  S
C144        H150   1.109       .  S
C145        H151   1.086       .  S
C145        C146   1.366       .  D
C146        C584   1.495       .  S
C147        H152   1.086       .  S
C147        C148   1.368       .  D
C148        C632   1.487       .  S
C153        C154   1.544       .  S
C153        C159   1.528       .  S
C153        C157   1.538       .  S
C153        C477   1.530       .  S
C154        H161   1.079       .  S
C154        C155   1.370       .  D
C155        C156   1.542       .  S
C155        C717   1.495       .  S
C156        C160   1.543       .  S
C156        C158   1.545       .  S
C156        H162   1.106       .  S
C157        H163   1.085       .  S
C157        C158   1.372       .  D
C158        C176   1.493       .  S
C159        H164   1.086       .  S
C159        C160   1.361       .  D
C160        C320   1.486       .  S
C165        C166   1.403       .  A
C165        C170   1.405       .  A
C166        C167   1.393       .  A
C166        H179   1.083       .  S
C167        C168   1.402       .  A
C167        H180   1.084       .  S
C168        C171   1.485       .  S
C168        C169   1.409       .  A
C169        C170   1.404       .  A
C169        H181   1.082       .  S
C170        H182   1.083       .  S
C171        H183   1.083       .  S
C171        C172   1.348       .  D
C172        H184   1.086       .  S
C172        C173   1.493       .  S
C173        C174   1.404       .  A
C173        C178   1.409       .  A
C174        C175   1.399       .  A
C174        H185   1.083       .  S
C175        C176   1.408       .  A
C175        H186   1.082       .  S
C176        C177   1.405       .  A
C177        C178   1.398       .  A
C177        H187   1.081       .  S
C178        H188   1.080       .  S
C189        C190   1.407       .  A
C189        C194   1.408       .  A
C190        C191   1.407       .  A
C190        H203   1.083   1_655  S
C191        C192   1.407       .  A
C191        H204   1.083       .  S
C192        C195   1.491       .  S
C192        C193   1.404       .  A
C193        C194   1.392       .  A
C193        H205   1.082       .  S
C194        H206   1.083       .  S
C195        H207   1.085       .  S
C195        C196   1.350       .  D
C196        H208   1.086       .  S
C196        C197   1.488       .  S
C197        C198   1.402       .  A
C197        C202   1.406       .  A
C198        C199   1.396       .  A
C198        H209   1.084       .  S
C199        C200   1.409       .  A
C199        H210   1.076       .  S
C200        C201   1.412       .  A
C201        C202   1.402       .  A
C201        H211   1.083       .  S
C202        H212   1.081       .  S
C213        C214   1.404       .  A
C213        C218   1.407       .  A
C214        C215   1.405       .  A
C214        H227   1.083       .  S
C215        C216   1.409       .  A
C215        H228   1.083       .  S
C216        C219   1.494       .  S
C216        C217   1.406       .  A
C217        C218   1.394       .  A
C217        H229   1.080       .  S
C218        H230   1.083       .  S
C219        H231   1.085       .  S
C219        C220   1.354       .  D
C220        H232   1.083       .  S
C220        C221   1.488       .  S
C221        C222   1.406       .  A
C221        C226   1.404       .  A
C222        C223   1.403       .  A
C222        H233   1.083       .  S
C223        C224   1.404       .  A
C223        H234   1.080       .  S
C224        C225   1.410       .  A
C225        C226   1.397       .  A
C225        H235   1.082       .  S
C226        H236   1.082       .  S
C237        C238   1.407       .  A
C237        C242   1.408       .  A
C238        C239   1.394       .  A
C238        H251   1.081       .  S
C239        C240   1.401       .  A
C239        H252   1.084       .  S
C240        C243   1.487       .  S
C240        C241   1.408       .  A
C241        C242   1.404       .  A
C241        H253   1.082       .  S
C242        H254   1.082       .  S
C243        H255   1.085       .  S
C243        C244   1.348       .  D
C244        H256   1.085       .  S
C244        C245   1.491       .  S
C245        C246   1.403       .  A
C245        C250   1.409       .  A
C246        C247   1.400       .  A
C246        H257   1.083       .  S
C247        C248   1.409       .  A
C247        H258   1.083       .  S
C248        C249   1.405       .  A
C249        C250   1.398       .  A
C249        H259   1.083       .  S
C250        H260   1.081       .  S
C261        C262   1.403       .  A
C261        C266   1.406       .  A
C262        C263   1.401       .  A
C262        H275   1.083       .  S
C263        C264   1.405       .  A
C263        H276   1.083       .  S
C264        C267   1.486       .  S
C264        C265   1.406       .  A
C265        C266   1.395       .  A
C265        H277   1.081       .  S
C266        H278   1.083       .  S
C267        H279   1.083       .  S
C267        C268   1.349       .  D
C268        H280   1.085       .  S
C268        C269   1.489       .  S
C269        C270   1.405       .  A
C269        C274   1.409       .  A
C270        C271   1.397       .  A
C270        H281   1.083       .  S
C271        C272   1.405       .  A
C271        H282   1.083       .  S
C272        C273   1.405       .  A
C273        C274   1.398       .  A
C273        H283   1.083       .  S
C274        H284   1.080       .  S
C285        C286   1.406       .  A
C285        C290   1.408       .  A
C286        C287   1.401       .  A
C286        H299   1.083       .  S
C287        C288   1.404       .  A
C287        H300   1.083       .  S
C288        C291   1.484       .  S
C288        C289   1.404       .  A
C289        C290   1.395       .  A
C289        H301   1.082       .  S
C290        H302   1.083       .  S
C291        H303   1.082       .  S
C291        C292   1.351       .  D
C292        H304   1.086       .  S
C292        C293   1.491       .  S
C293        C294   1.406       .  A
C293        C298   1.405       .  A
C294        C295   1.395       .  A
C294        H305   1.079       .  S
C295        C296   1.409       .  A
C295        H306   1.083       .  S
C296        C297   1.409       .  A
C297        C298   1.400       .  A
C297        H307   1.078       .  S
C298        H308   1.084       .  S
C309        C310   1.405       .  A
C309        C314   1.408       .  A
C310        C311   1.407       .  A
C310        H323   1.083       .  S
C311        C312   1.410       .  A
C311        H324   1.083       .  S
C312        C315   1.492       .  S
C312        C313   1.404       .  A
C313        C314   1.390       .  A
C313        H325   1.080       .  S
C314        H326   1.083       .  S
C315        H327   1.085       .  S
C315        C316   1.354       .  D
C316        H328   1.083       .  S
C316        C317   1.487       .  S
C317        C318   1.407       .  A
C317        C322   1.404       .  A
C318        C319   1.401       .  A
C318        H329   1.083       .  S
C319        C320   1.402       .  A
C319        H330   1.083       .  S
C320        C321   1.408       .  A
C321        C322   1.395       .  A
C321        H331   1.083       .  S
C322        H332   1.081       .  S
C333        C334   1.409       .  A
C333        C338   1.409       .  A
C334        C335   1.400       .  A
C334        H347   1.077       .  S
C335        C336   1.405       .  A
C335        H348   1.083       .  S
C336        C339   1.493       .  S
C336        C337   1.407       .  A
C337        C338   1.397       .  A
C337        H349   1.079       .  S
C338        H350   1.083       .  S
C339        H351   1.085       .  S
C339        C340   1.351       .  D
C340        H352   1.082       .  S
C340        C341   1.488       .  S
C341        C342   1.404       .  A
C341        C346   1.407       .  A
C342        C343   1.399       .  A
C342        H353   1.083       .  S
C343        C344   1.406       .  A
C343        H354   1.083       .  S
C344        C345   1.407       .  A
C345        C346   1.398       .  A
C345        H355   1.083       .  S
C346        H356   1.082       .  S
C357        C358   1.408       .  A
C357        C362   1.410       .  A
C358        C359   1.398       .  A
C358        H371   1.077       .  S
C359        C360   1.404       .  A
C359        H372   1.084       .  S
C360        C363   1.489       .  S
C360        C361   1.406       .  A
C361        C362   1.398       .  A
C361        H373   1.080       .  S
C362        H374   1.083       .  S
C363        H375   1.087       .  S
C363        C364   1.349       .  D
C364        H376   1.084       .  S
C364        C365   1.486       .  S
C365        C366   1.404       .  A
C365        C370   1.405       .  A
C366        C367   1.402       .  A
C366        H377   1.083       .  S
C367        C368   1.407       .  A
C367        H378   1.083       .  S
C368        C369   1.406       .  A
C369        C370   1.394       .  A
C369        H379   1.083       .  S
C370        H380   1.082       .  S
C381        C382   1.404       .  A
C381        C386   1.404       .  A
C382        C383   1.406       .  A
C382        H395   1.083       .  S
C383        C384   1.409       .  A
C383        H396   1.083       .  S
C384        C387   1.496       .  S
C384        C385   1.408       .  A
C385        C386   1.396       .  A
C385        H397   1.080       .  S
C386        H398   1.083       .  S
C387        H399   1.084       .  S
C387        C388   1.353       .  D
C388        H400   1.084       .  S
C388        C389   1.494       .  S
C389        C390   1.406       .  A
C389        C394   1.408       .  A
C390        C391   1.400       .  A
C390        H401   1.083       .  S
C391        C392   1.403       .  A
C391        H402   1.082       .  S
C392        C393   1.408       .  A
C393        C394   1.402       .  A
C393        H403   1.082       .  S
C394        H404   1.081       .  S
C405        C406   1.401       .  A
C405        C410   1.405       .  A
C406        C407   1.404       .  A
C406        H419   1.083       .  S
C407        C408   1.409       .  A
C407        H420   1.083       .  S
C408        C411   1.495       .  S
C408        C409   1.408       .  A
C409        C410   1.394       .  A
C409        H421   1.079       .  S
C410        H422   1.083       .  S
C411        H423   1.085       .  S
C411        C412   1.351       .  D
C412        H424   1.082       .  S
C412        C413   1.489       .  S
C413        C414   1.403       .  A
C413        C418   1.408       .  A
C414        C415   1.397       .  A
C414        H425   1.084       .  S
C415        C416   1.406       .  A
C415        H426   1.083       .  S
C416        C417   1.406       .  A
C417        C418   1.402       .  A
C417        H427   1.083       .  S
C418        H428   1.081       .  S
C429        C430   1.407       .  A
C429        C434   1.408       .  A
C430        C431   1.408       .  A
C430        H443   1.083   1_556  S
C431        C432   1.407       .  A
C431        H444   1.083       .  S
C432        C435   1.490       .  S
C432        C433   1.403       .  A
C433        C434   1.392       .  A
C433        H445   1.083       .  S
C434        H446   1.083       .  S
C435        H447   1.086       .  S
C435        C436   1.350       .  D
C436        H448   1.086       .  S
C436        C437   1.486       .  S
C437        C438   1.402       .  A
C437        C442   1.404       .  A
C438        C439   1.398       .  A
C438        H449   1.084       .  S
C439        C440   1.409       .  A
C439        H450   1.077       .  S
C440        C441   1.413       .  A
C441        C442   1.402       .  A
C441        H451   1.083       .  S
C442        H452   1.082       .  S
C453        C454   1.404       .  A
C453        C458   1.404       .  A
C454        C455   1.400       .  A
C454        H467   1.083       .  S
C455        C456   1.403       .  A
C455        H468   1.083       .  S
C456        C459   1.488       .  S
C456        C457   1.408       .  A
C457        C458   1.401       .  A
C457        H469   1.082       .  S
C458        H470   1.083       .  S
C459        H471   1.086       .  S
C459        C460   1.345       .  D
C460        H472   1.087       .  S
C460        C461   1.486       .  S
C461        C462   1.400       .  A
C461        C466   1.409       .  A
C462        C463   1.396       .  A
C462        H473   1.084       .  S
C463        C464   1.407       .  A
C463        H474   1.083       .  S
C464        C465   1.407       .  A
C465        C466   1.406       .  A
C465        H475   1.083       .  S
C466        H476   1.083       .  S
C477        C478   1.410       .  A
C477        C482   1.411       .  A
C478        C479   1.397       .  A
C478        H491   1.076       .  S
C479        C480   1.401       .  A
C479        H492   1.084       .  S
C480        C483   1.480       .  S
C480        C481   1.403       .  A
C481        C482   1.398       .  A
C481        H493   1.082       .  S
C482        H494   1.083       .  S
C483        H495   1.087       .  S
C483        C484   1.347       .  D
C484        H496   1.086       .  S
C484        C485   1.483       .  S
C485        C486   1.405       .  A
C485        C490   1.402       .  A
C486        C487   1.405       .  A
C486        H497   1.083       .  S
C487        C488   1.406       .  A
C487        H498   1.083       .  S
C488        C489   1.408       .  A
C489        C490   1.391       .  A
C489        H499   1.083       .  S
C490        H500   1.083       .  S
C501        C502   1.405       .  A
C501        C506   1.408       .  A
C502        C503   1.397       .  A
C502        H515   1.083       .  S
C503        C504   1.403       .  A
C503        H516   1.083       .  S
C504        C507   1.485       .  S
C504        C505   1.406       .  A
C505        C506   1.400       .  A
C505        H517   1.082       .  S
C506        H518   1.083       .  S
C507        H519   1.082       .  S
C507        C508   1.351       .  D
C508        H520   1.086       .  S
C508        C509   1.495       .  S
C509        C510   1.409       .  A
C509        C514   1.409       .  A
C510        C511   1.404       .  A
C510        H521   1.083       .  S
C511        C512   1.401       .  A
C511        H522   1.082       .  S
C512        C513   1.403       .  A
C513        C514   1.395       .  A
C513        H523   1.084       .  S
C514        H524   1.079       .  S
C525        C526   1.406       .  A
C525        C530   1.407       .  A
C526        C527   1.407       .  A
C526        H539   1.083       .  S
C527        C528   1.408       .  A
C527        H540   1.083       .  S
C528        C531   1.495       .  S
C528        C529   1.406       .  A
C529        C530   1.396       .  A
C529        H541   1.082       .  S
C530        H542   1.083       .  S
C531        H543   1.085       .  S
C531        C532   1.352       .  D
C532        H544   1.086       .  S
C532        C533   1.493       .  S
C533        C534   1.407       .  A
C533        C538   1.408       .  A
C534        C535   1.401       .  A
C534        H545   1.083       .  S
C535        C536   1.402       .  A
C535        H546   1.083       .  S
C536        C537   1.407       .  A
C537        C538   1.403       .  A
C537        H547   1.083       .  S
C538        H548   1.081       .  S
C549        C550   1.408       .  A
C549        C554   1.407       .  A
C550        C551   1.401       .  A
C550        H563   1.083       .  S
C551        C552   1.403       .  A
C551        H564   1.083       .  S
C552        C555   1.487       .  S
C552        C553   1.406       .  A
C553        C554   1.398       .  A
C553        H565   1.083       .  S
C554        H566   1.083       .  S
C555        H567   1.086       .  S
C555        C556   1.347       .  D
C556        H568   1.086       .  S
C556        C557   1.485       .  S
C557        C558   1.401       .  A
C557        C562   1.406       .  A
C558        C559   1.395       .  A
C558        H569   1.083       .  S
C559        C560   1.409       .  A
C559        H570   1.081       .  S
C560        C561   1.408       .  A
C561        C562   1.403       .  A
C561        H571   1.078       .  S
C562        H572   1.082       .  S
C573        C574   1.406       .  A
C573        C578   1.409       .  A
C574        C575   1.406       .  A
C574        H587   1.083       .  S
C575        C576   1.408       .  A
C575        H588   1.083       .  S
C576        C579   1.494       .  S
C576        C577   1.405       .  A
C577        C578   1.396       .  A
C577        H589   1.082       .  S
C578        H590   1.083       .  S
C579        H591   1.085       .  S
C579        C580   1.353       .  D
C580        H592   1.085       .  S
C580        C581   1.492       .  S
C581        C582   1.407       .  A
C581        C586   1.405       .  A
C582        C583   1.403       .  A
C582        H593   1.083       .  S
C583        C584   1.404       .  A
C583        H594   1.082       .  S
C584        C585   1.410       .  A
C585        C586   1.399       .  A
C585        H595   1.082       .  S
C586        H596   1.082       .  S
C597        C598   1.405       .  A
C597        C602   1.409       .  A
C598        C599   1.403       .  A
C598        H611   1.083       .  S
C599        C600   1.407       .  A
C599        H612   1.083       .  S
C600        C603   1.489       .  S
C600        C601   1.405       .  A
C601        C602   1.396       .  A
C601        H613   1.081       .  S
C602        H614   1.083       .  S
C603        H615   1.085       .  S
C603        C604   1.352       .  D
C604        H616   1.085       .  S
C604        C605   1.489       .  S
C605        C606   1.407       .  A
C605        C610   1.406       .  A
C606        C607   1.403       .  A
C606        H617   1.083       .  S
C607        C608   1.402       .  A
C607        H618   1.083       .  S
C608        C609   1.405       .  A
C609        C610   1.395       .  A
C609        H619   1.083       .  S
C610        H620   1.082       .  S
C621        C622   1.406       .  A
C621        C626   1.407       .  A
C622        C623   1.396       .  A
C622        H635   1.083       .  S
C623        C624   1.402       .  A
C623        H636   1.083       .  S
C624        C627   1.487       .  S
C624        C625   1.408       .  A
C625        C626   1.403       .  A
C625        H637   1.082       .  S
C626        H638   1.083       .  S
C627        H639   1.084       .  S
C627        C628   1.349       .  D
C628        H640   1.086       .  S
C628        C629   1.493       .  S
C629        C630   1.406       .  A
C629        C634   1.409       .  A
C630        C631   1.400       .  A
C630        H641   1.083       .  S
C631        C632   1.404       .  A
C631        H642   1.083       .  S
C632        C633   1.404       .  A
C633        C634   1.399       .  A
C633        H643   1.083       .  S
C634        H644   1.080       .  S
C645        C646   1.406       .  A
C645        C650   1.405       .  A
C646        C647   1.396       .  A
C646        H659   1.083       .  S
C647        C648   1.403       .  A
C647        H660   1.084       .  S
C648        C651   1.497       .  S
C648        C649   1.414       .  A
C649        C650   1.407       .  A
C649        H661   1.081       .  S
C650        H662   1.083       .  S
C651        H663   1.085       .  S
C651        C652   1.349       .  D
C652        H664   1.084       .  S
C652        C653   1.495       .  S
C653        C654   1.403       .  A
C653        C658   1.412       .  A
C654        C655   1.397       .  A
C654        H665   1.083       .  S
C655        C656   1.405       .  A
C655        H666   1.083       .  S
C656        C657   1.405       .  A
C657        C658   1.406       .  A
C657        H667   1.082       .  S
C658        H668   1.081       .  S
C669        C670   1.407       .  A
C669        C674   1.406       .  A
C670        C671   1.402       .  A
C670        H683   1.083       .  S
C671        C672   1.406       .  A
C671        H684   1.083       .  S
C672        C675   1.496       .  S
C672        C673   1.409       .  A
C673        C674   1.399       .  A
C673        H685   1.080       .  S
C674        H686   1.083       .  S
C675        H687   1.084       .  S
C675        C676   1.352       .  D
C676        H688   1.084       .  S
C676        C677   1.494       .  S
C677        C678   1.406       .  A
C677        C682   1.409       .  A
C678        C679   1.400       .  A
C678        H689   1.083       .  S
C679        C680   1.402       .  A
C679        H690   1.081       .  S
C680        C681   1.407       .  A
C681        C682   1.402       .  A
C681        H691   1.083       .  S
C682        H692   1.081       .  S
C693        C694   1.405       .  A
C693        C698   1.406       .  A
C694        C695   1.395       .  A
C694        H707   1.083       .  S
C695        C696   1.402       .  A
C695        H708   1.083       .  S
C696        C699   1.484       .  S
C696        C697   1.406       .  A
C697        C698   1.403       .  A
C697        H709   1.082       .  S
C698        H710   1.079       .  S
C699        H711   1.086       .  S
C699        C700   1.348       .  D
C700        H712   1.086       .  S
C700        C701   1.488       .  S
C701        C702   1.406       .  A
C701        C706   1.406       .  A
C702        C703   1.404       .  A
C702        H713   1.083       .  S
C703        C704   1.405       .  A
C703        H714   1.083       .  S
C704        C705   1.405       .  A
C705        C706   1.395       .  A
C705        H715   1.083       .  S
C706        H716   1.082       .  S
C717        C718   1.408       .  A
C717        C722   1.407       .  A
C718        C719   1.402       .  A
C718        H731   1.082       .  S
C719        C720   1.403       .  A
C719        H732   1.083       .  S
C720        C723   1.488       .  S
C720        C721   1.405       .  A
C721        C722   1.397       .  A
C721        H733   1.083       .  S
C722        H734   1.082       .  S
C723        H735   1.085       .  S
C723        C724   1.349       .  D
C724        H736   1.087       .  S
C724        C725   1.490       .  S
C725        C726   1.404       .  A
C725        C730   1.408       .  A
C726        C727   1.399       .  A
C726        H737   1.083       .  S
C727        C728   1.407       .  A
C727        H738   1.083       .  S
C728        C729   1.408       .  A
C729        C730   1.403       .  A
C729        H739   1.083       .  S
C730        H740   1.081       .  S
