geometry optimzed in LAMMPS
_audit_creation_date              2020-12-01 
_audit_creation_method            'lammps2cif' 
_symmetry_space_group_name_H-M    'P1' 
_symmetry_Int_Tables_number       1 
_symmetry_cell_setting            triclinic 
loop_ 
_symmetry_equiv_pos_as_xyz 
  x,y,z 
_cell_length_a                    68.74389166 
_cell_length_b                    68.70017206974127 
_cell_length_c                    68.74771153832003 
_cell_angle_alpha                 90.07153776887199 
_cell_angle_beta                  89.93297325074506 
_cell_angle_gamma                 90.01101580749821 
loop_ 
_atom_site_label 
_atom_site_type_symbol 
_atom_site_fract_x 
_atom_site_fract_y 
_atom_site_fract_z 
_atom_site_charge 
C1          C  0.69043119  0.66306733  0.68606201     0.03500
C2          C  0.67373501  0.67166526  0.69416228    -0.12700
C3          C  0.66576265  0.68858403  0.68595670     0.01000
C4          C  0.67477575  0.69708893  0.66973351    -0.11200
C5          C  0.69141979  0.68861380  0.66151211     0.03500
C6          C  0.69940375  0.67185901  0.66995802    -0.10600
H7          H  0.66679015  0.66505120  0.70668037     0.09100
H8          H  0.66884985  0.71032551  0.66355863     0.06600
H9          H  0.71245150  0.66547140  0.66379883     0.06400
C10         C  0.27835738  0.69935427  0.30574864     0.03500
C11         C  0.27049629  0.68271193  0.29683035    -0.12700
C12         C  0.27971068  0.67424713  0.28062045     0.01000
C13         C  0.29655102  0.68293190  0.27303624    -0.11200
C14         C  0.30476142  0.69932629  0.28208268     0.03500
C15         C  0.29556810  0.70748747  0.29839046    -0.10600
H16         H  0.25738511  0.67617468  0.30267032     0.09100
H17         H  0.30359269  0.67661538  0.26040433     0.06600
H18         H  0.30194120  0.72003732  0.30552664     0.06400
C19         C  0.67251566  0.27982916  0.27271072     0.03500
C20         C  0.68080999  0.29624594  0.26384425    -0.12700
C21         C  0.69824872  0.30416160  0.27095146     0.01000
C22         C  0.70707187  0.29582477  0.28732091    -0.11200
C23         C  0.69870142  0.27964922  0.29647328     0.03500
C24         C  0.68128373  0.27188396  0.28929633    -0.10600
H25         H  0.67377836  0.30277905  0.25135024     0.09100
H26         H  0.72045659  0.30195487  0.29297820     0.06600
H27         H  0.67445950  0.25979846  0.29677910     0.06400
C28         C  0.28986209  0.26868714  0.69945615     0.03500
C29         C  0.28314432  0.28586571  0.70827468    -0.12700
C30         C  0.26768765  0.29640167  0.70009161     0.01000
C31         C  0.25849853  0.28927360  0.68330431    -0.11200
C32         C  0.26496741  0.27204679  0.67433728     0.03500
C33         C  0.28091529  0.26204379  0.68232712    -0.10600
H34         H  0.29015709  0.29122286  0.72134224     0.09100
H35         H  0.24645448  0.29729855  0.67706959     0.06600
H36         H  0.28654472  0.24920887  0.67507029     0.06400
C37         C  0.27797519  0.66567851  0.69899729     0.03500
C38         C  0.29424760  0.67456154  0.70745090    -0.12700
C39         C  0.30212470  0.69148420  0.69933542     0.01000
C40         C  0.29341390  0.69982257  0.68288465    -0.11200
C41         C  0.27716710  0.69097922  0.67417952     0.03500
C42         C  0.26935497  0.67399674  0.68249531    -0.10600
H43         H  0.30102178  0.66806115  0.72010984     0.09100
H44         H  0.29928489  0.71318868  0.67693819     0.06600
H45         H  0.25685494  0.66701975  0.67588760     0.06400
C46         C  0.69865077  0.69376710  0.29786366     0.03500
C47         C  0.68134573  0.70222260  0.29115668    -0.12700
C48         C  0.67141508  0.69415013  0.27530329     0.01000
C49         C  0.67887289  0.67759704  0.26599381    -0.11200
C50         C  0.69597683  0.66883000  0.27279191     0.03500
C51         C  0.70575227  0.67687891  0.28878241    -0.10600
H52         H  0.67563654  0.71514627  0.29820242     0.09100
H53         H  0.67136093  0.67153728  0.25352473     0.06600
H54         H  0.71888364  0.67000806  0.29414447     0.06400
C55         C  0.66399469  0.27080635  0.69230702     0.03500
C56         C  0.67254003  0.26469584  0.67479577    -0.12700
C57         C  0.68942635  0.27370890  0.66776071     0.01000
C58         C  0.69741804  0.28949556  0.67795411    -0.11200
C59         C  0.68885664  0.29599788  0.69532338     0.03500
C60         C  0.67212156  0.28665904  0.70241100    -0.10600
H61         H  0.66608677  0.25281311  0.66666006     0.09100
H62         H  0.71010961  0.29691393  0.67224673     0.06600
H63         H  0.66543813  0.29173408  0.71577178     0.06400
N64         N  0.20610900  0.44993081  0.20706585    -0.26900
N65         N  0.21660845  0.45909139  0.22033855    -0.34800
C66         C  0.22706169  0.44582786  0.23026083     0.01400
C67         C  0.22316369  0.42751680  0.22267150     0.07400
C68         C  0.20957097  0.43069510  0.20819538    -0.05700
H69         H  0.23694771  0.44925709  0.24201484     0.08100
H70         H  0.20268786  0.41982554  0.19911321     0.09300
Cu71       Cu  0.21653080  0.48934284  0.22382250     0.44200
Cu72       Cu  0.18830334  0.46387366  0.18720171     0.42000
Cu73       Cu  0.18652924  0.51615136  0.18922356     0.43900
N74         N  0.21436936  0.51970999  0.22304796    -0.34300
N75         N  0.20333756  0.52929443  0.21054350    -0.28600
C76         C  0.20599684  0.54853664  0.21303756    -0.04700
C77         C  0.21918742  0.55132642  0.22796870     0.07500
C78         C  0.22433601  0.53270835  0.23382763     0.01300
H79         H  0.19942623  0.55966446  0.20406961     0.09000
H80         H  0.23496677  0.52890471  0.24477720     0.08100
N81         N  0.17329753  0.49994578  0.16748536    -0.35800
N82         N  0.17399001  0.48073374  0.16677817    -0.28000
C83         C  0.16528227  0.47459622  0.15037862    -0.03200
C84         C  0.15905414  0.49074754  0.14010944     0.05400
C85         C  0.16410284  0.50655815  0.15154134     0.03500
H86         H  0.16396697  0.45950617  0.14604938     0.08600
H87         H  0.16184037  0.52177673  0.14819236     0.07400
C88         C  0.08850591  0.49654131  0.01168905     0.80600
N89         N  0.06878288  0.49744950  0.01054440    -0.77700
C90         C  0.05980989  0.49809759  0.99294908     0.83000
N91         N  0.07076807  0.49807449  0.97646423    -0.77700
C92         C  0.09050931  0.49835126  0.97746111     0.83100
N93         N  0.09927040  0.49735530  0.99513166    -0.79400
N94         N  0.21254563  0.44278137  0.78551761    -0.26900
N95         N  0.22209292  0.45196610  0.77156077    -0.34800
C96         C  0.22895518  0.43887431  0.75875458     0.01400
C97         C  0.22327492  0.42053456  0.76472912     0.07400
C98         C  0.21313975  0.42350105  0.78191561    -0.05700
H99         H  0.23744186  0.44245911  0.74598771     0.08100
H100        H  0.20649546  0.41248418  0.79098625     0.09300
Cu101      Cu  0.22526271  0.48185622  0.76992874     0.44200
Cu102      Cu  0.19897818  0.45717606  0.80853993     0.42000
Cu103      Cu  0.20411263  0.51017032  0.80822360     0.43900
N104        N  0.22674777  0.51190681  0.77084500    -0.34300
N105        N  0.21929968  0.52236806  0.78517296    -0.28600
C106        C  0.22288189  0.54130955  0.78176621    -0.04700
C107        C  0.23310909  0.54277510  0.76447425     0.07500
C108        C  0.23511025  0.52388482  0.75783006     0.01300
H109        H  0.21820645  0.55314740  0.79105189     0.09000
H110        H  0.24222776  0.51918214  0.74458714     0.08100
N111        N  0.18919191  0.49473943  0.82944935    -0.35800
N112        N  0.18730419  0.47557349  0.82968010    -0.28000
C113        C  0.17707150  0.47044526  0.84558618    -0.03200
C114        C  0.17255209  0.48713640  0.85599732     0.05400
C115        C  0.18019444  0.50226333  0.84511946     0.03500
H116        H  0.17337340  0.45562910  0.84941761     0.08600
H117        H  0.17926856  0.51766153  0.84833321     0.07400
N118        N  0.75911464  0.44130969  0.77087541    -0.26900
N119        N  0.74940246  0.45058370  0.75712587    -0.34800
C120        C  0.74006541  0.43747450  0.74598986     0.01400
C121        C  0.74421272  0.41904257  0.75295467     0.07400
C122        C  0.75611643  0.42202872  0.76890963    -0.05700
H123        H  0.73105249  0.44107673  0.73361721     0.08100
H124        H  0.76249697  0.41098333  0.77811612     0.09300
Cu125      Cu  0.74965327  0.48062974  0.75376683     0.44200
Cu126      Cu  0.77676946  0.45548321  0.79089290     0.42000
Cu127      Cu  0.78190949  0.50812142  0.78476828     0.43900
N128        N  0.75223976  0.51073668  0.75269833    -0.34300
N129        N  0.76416344  0.52083927  0.76391114    -0.28600
C130        C  0.76220693  0.53989359  0.75979560    -0.04700
C131        C  0.74856368  0.54186069  0.74509854     0.07500
C132        C  0.74238967  0.52308029  0.74116986     0.01300
H133        H  0.76987634  0.55148201  0.76720643     0.09000
H134        H  0.73146427  0.51871028  0.73072013     0.08100
N135        N  0.79640334  0.49201530  0.80580364    -0.35800
N136        N  0.79422802  0.47303376  0.80824076    -0.28000
C137        C  0.80458792  0.46741548  0.82383479    -0.03200
C138        C  0.81394079  0.48354211  0.83142992     0.05400
C139        C  0.80828800  0.49891719  0.81973901     0.03500
H140        H  0.80499366  0.45271706  0.82946283     0.08600
H141        H  0.81196320  0.51411459  0.82165769     0.07400
N142        N  0.76511043  0.44744167  0.19067663    -0.26900
N143        N  0.75811366  0.45769586  0.20539543    -0.34800
C144        C  0.75043166  0.44547647  0.21858126     0.01400
C145        C  0.75260807  0.42665452  0.21179221     0.07400
C146        C  0.76212371  0.42839489  0.19415358    -0.05700
H147        H  0.74332497  0.45002086  0.23187422     0.08100
H148        H  0.76579104  0.41676020  0.18418116     0.09300
Cu149      Cu  0.75740148  0.48787317  0.20615767     0.44200
Cu150      Cu  0.77678389  0.45997297  0.16585586     0.42000
Cu151      Cu  0.77332752  0.51277197  0.16271837     0.43900
N152        N  0.75524777  0.51776144  0.20245099    -0.34300
N153        N  0.76062040  0.52687954  0.18639252    -0.28600
C154        C  0.75664876  0.54598313  0.18832773    -0.04700
C155        C  0.74832417  0.54900085  0.20645738     0.07500
C156        C  0.74784651  0.53080554  0.21505404     0.01300
H157        H  0.75997756  0.55687148  0.17748233     0.09000
H158        H  0.74225868  0.52726804  0.22933915     0.08100
N159        N  0.78581119  0.49525314  0.14130241    -0.35800
N160        N  0.78706727  0.47607837  0.14253051    -0.28000
C161        C  0.79618158  0.46919341  0.12662576    -0.03200
C162        C  0.80069005  0.48471630  0.11465908     0.05400
C163        C  0.79410390  0.50104260  0.12452914     0.03500
H164        H  0.79939451  0.45399377  0.12401443     0.08600
H165        H  0.79555548  0.51605323  0.12001079     0.07400
C166        C  0.88311304  0.49130189  0.99371042     0.80600
N167        N  0.87412728  0.49197915  0.97615753    -0.77700
C168        C  0.88470042  0.49268411  0.95949445     0.83000
N169        N  0.90444002  0.49194271  0.96045703    -0.77700
C170        C  0.91366823  0.49130560  0.97793422     0.83100
N171        N  0.90284326  0.49056958  0.99448706    -0.79400
N172        N  0.44687262  0.19931795  0.20888530    -0.26900
N173        N  0.45644024  0.21152888  0.22024699    -0.34800
C174        C  0.44374723  0.22250958  0.23021392     0.01400
C175        C  0.42516127  0.21695586  0.22508141     0.07400
C176        C  0.42763964  0.20231814  0.21133737    -0.05700
H177        H  0.44778412  0.23383340  0.24039716     0.08100
H178        H  0.41633572  0.19462113  0.20354421     0.09300
Cu179      Cu  0.48622215  0.21345557  0.22154186     0.44200
Cu180      Cu  0.46108511  0.17929149  0.19093252     0.42000
Cu181      Cu  0.51444150  0.18022968  0.19248749     0.43900
N182        N  0.51608659  0.21379961  0.22068111    -0.34300
N183        N  0.52662078  0.20170805  0.21006266    -0.28600
C184        C  0.54554675  0.20587982  0.21276767    -0.04700
C185        C  0.54689332  0.22115723  0.22588063     0.07500
C186        C  0.52790181  0.22595580  0.23038950     0.01300
H187        H  0.55746358  0.19828153  0.20581797     0.09000
H188        H  0.52290178  0.23768588  0.23960847     0.08100
N189        N  0.49828523  0.16016224  0.17649067    -0.35800
N190        N  0.47904571  0.15984909  0.17592388    -0.28000
C191        C  0.47330319  0.14464130  0.16497523    -0.03200
C192        C  0.48964701  0.13502508  0.15801286     0.05400
C193        C  0.50521175  0.14520219  0.16585822     0.03500
H194        H  0.45827973  0.14050129  0.16279318     0.08600
H195        H  0.52049082  0.14178371  0.16422053     0.07400
C196        C  0.48778013  0.97145600  0.08787061     0.80600
N197        N  0.48921217  0.98872599  0.09744623    -0.77700
C198        C  0.48990841  0.00577044  0.08744075     0.83000
N199        N  0.48820841  0.00550785  0.06773850    -0.77700
C200        C  0.48606499  0.98838846  0.05803655     0.83100
N201        N  0.48613110  0.97142559  0.06818650    -0.79400
N202        N  0.44824287  0.77752832  0.21180579    -0.26900
N203        N  0.45796736  0.76366901  0.22093815    -0.34800
C204        C  0.44526451  0.75145099  0.22942283     0.01400
C205        C  0.42664175  0.75771632  0.22521014     0.07400
C206        C  0.42905116  0.77437552  0.21415224    -0.05700
H207        H  0.44929199  0.73906223  0.23824820     0.08100
H208        H  0.41770441  0.78380220  0.20868793     0.09300
Cu209      Cu  0.48802369  0.76213766  0.22221792     0.44200
Cu210      Cu  0.46150474  0.80065484  0.19739806     0.42000
Cu211      Cu  0.51431094  0.80023726  0.19759163     0.43900
N212        N  0.51806665  0.76422249  0.22227671    -0.34300
N213        N  0.52775986  0.77832012  0.21348560    -0.28600
C214        C  0.54691864  0.77577662  0.21661061    -0.04700
C215        C  0.54933421  0.75930504  0.22794017     0.07500
C216        C  0.53076436  0.75225598  0.23108787     0.01300
H217        H  0.55822240  0.78500018  0.21071165     0.09000
H218        H  0.52676907  0.73943286  0.23929693     0.08100
N219        N  0.49773066  0.82147007  0.18386235    -0.35800
N220        N  0.47850609  0.82189573  0.18403585    -0.28000
C221        C  0.47245694  0.83776804  0.17427774    -0.03200
C222        C  0.48864194  0.84794139  0.16777008     0.05400
C223        C  0.50438846  0.83694697  0.17391413     0.03500
H224        H  0.45736806  0.84169946  0.17217031     0.08600
H225        H  0.51960007  0.83958001  0.17101112     0.07400
N226        N  0.52621850  0.76826172  0.76220372    -0.26900
N227        N  0.51562412  0.75522249  0.75281585    -0.34800
C228        C  0.52755653  0.74288773  0.74339050     0.01400
C229        C  0.54657513  0.74832942  0.74713601     0.07400
C230        C  0.54517323  0.76461383  0.75891888    -0.05700
H231        H  0.52274034  0.73105383  0.73418067     0.08100
H232        H  0.55705866  0.77321999  0.76462438     0.09300
Cu233      Cu  0.48541784  0.75511626  0.75259725     0.44200
Cu234      Cu  0.51436835  0.79049690  0.77885887     0.42000
Cu235      Cu  0.46152629  0.79339563  0.77923001     0.43900
N236        N  0.45540632  0.75812437  0.75422068    -0.34300
N237        N  0.44667399  0.77229105  0.76387041    -0.28600
C238        C  0.42729644  0.77010409  0.76239413    -0.04700
C239        C  0.42364290  0.75382061  0.75111879     0.07500
C240        C  0.44179382  0.74650077  0.74633854     0.01300
H241        H  0.41676433  0.77935149  0.76954599     0.09000
H242        H  0.44486843  0.73365622  0.73775303     0.08100
N243        N  0.47942626  0.81178417  0.79482452    -0.35800
N244        N  0.49863614  0.81079248  0.79474880    -0.28000
C245        C  0.50573511  0.82490021  0.80630439    -0.03200
C246        C  0.49023251  0.83501558  0.81421952     0.05400
C247        C  0.47379115  0.82647355  0.80644279     0.03500
H248        H  0.52104553  0.82771384  0.80862294     0.08600
H249        H  0.45884619  0.83086601  0.80872466     0.07400
N250        N  0.43847963  0.18777011  0.75553175    -0.26900
N251        N  0.44731794  0.20227771  0.74648938    -0.34800
C252        C  0.43381573  0.21373750  0.73816440     0.01400
C253        C  0.41561141  0.20599601  0.74201721     0.07400
C254        C  0.41910940  0.18967500  0.75326674    -0.05700
H255        H  0.43700601  0.22669018  0.72981042     0.08100
H256        H  0.40838194  0.17970391  0.75904682     0.09300
Cu257      Cu  0.47740167  0.20564735  0.74564888     0.44200
Cu258      Cu  0.45338432  0.16571218  0.76987486     0.42000
Cu259      Cu  0.50611553  0.17016778  0.77208644     0.43900
N260        N  0.50763663  0.20627614  0.74713553    -0.34300
N261        N  0.51804263  0.19367486  0.75727894    -0.28600
C262        C  0.53703554  0.19790096  0.75512023    -0.04700
C263        C  0.53867316  0.21389952  0.74302972     0.07500
C264        C  0.51977279  0.21871584  0.73808192     0.01300
H265        H  0.54882222  0.18953235  0.76132503     0.09000
H266        H  0.51519509  0.23025302  0.72841675     0.08100
N267        N  0.49068971  0.14678748  0.78350122    -0.35800
N268        N  0.47154266  0.14513849  0.78257721    -0.28000
C269        C  0.46617536  0.12832984  0.79104923    -0.03200
C270        C  0.48273257  0.11877165  0.79739555     0.05400
C271        C  0.49797788  0.13105660  0.79258749     0.03500
H272        H  0.45126918  0.12355664  0.79272233     0.08600
H273        H  0.51327105  0.12871515  0.79547060     0.07400
C274        C  0.49041646  0.96386743  0.88317749     0.80600
N275        N  0.48905096  0.98012530  0.87206666    -0.77700
C276        C  0.48834951  0.99798654  0.88054548     0.83000
N277        N  0.48799766  0.99944146  0.90026941    -0.77700
C278        C  0.48943045  0.98319348  0.91146662     0.83100
N279        N  0.49037972  0.96543857  0.90284159    -0.79400
C280        C  0.30336525  0.27876765  0.27789834     0.03500
C281        C  0.29500311  0.29568416  0.27021790    -0.12700
C282        C  0.27761390  0.30309231  0.27790007     0.01000
C283        C  0.26830203  0.29320272  0.29312524    -0.11200
C284        C  0.27622565  0.27590706  0.30058587     0.03500
C285        C  0.29368858  0.26870146  0.29278770    -0.10600
H286        H  0.30223598  0.30334438  0.25848239     0.09100
H287        H  0.25511951  0.29917131  0.29941312     0.06600
H288        H  0.29992448  0.25540550  0.29852508     0.06400
C289        C  0.99891837  0.09036832  0.48450502     0.80600
N290        N  0.98166333  0.10006682  0.48442024    -0.77700
C291        C  0.96447918  0.09031960  0.48548194     0.83000
N292        N  0.96472047  0.07060393  0.48734284    -0.77700
C293        C  0.98185501  0.06075658  0.48793621     0.83100
N294        N  0.99884231  0.07068619  0.48621776    -0.79400
N295        N  0.19782189  0.20832692  0.44420276    -0.26900
N296        N  0.21081590  0.21829429  0.45432808    -0.34800
C297        C  0.22352830  0.22657858  0.44199224     0.01400
C298        C  0.21844735  0.22132850  0.42328590     0.07400
C299        C  0.20202524  0.20989801  0.42517148    -0.05700
H300        H  0.23539498  0.23598619  0.44630497     0.08100
H301        H  0.19339240  0.20373299  0.41354636     0.09300
Cu302      Cu  0.21053540  0.22107607  0.48431264     0.44200
Cu303      Cu  0.17393409  0.19437830  0.45619214     0.42000
Cu304      Cu  0.16887064  0.20023738  0.50804622     0.43900
N305        N  0.20639303  0.22207177  0.51412424    -0.34300
N306        N  0.19110474  0.21434284  0.52285902    -0.28600
C307        C  0.19245174  0.21760388  0.54210673    -0.04700
C308        C  0.20924513  0.22818999  0.54561930     0.07500
C309        C  0.21785667  0.23049901  0.52755854     0.01300
H310        H  0.18194528  0.21268176  0.55274771     0.09000
H311        H  0.23133780  0.23799323  0.52438658     0.08100
N312        N  0.14818095  0.18678414  0.49062184    -0.35800
N313        N  0.15017368  0.18415620  0.47168630    -0.28000
C314        C  0.13464179  0.17430736  0.46494014    -0.03200
C315        C  0.12202468  0.17088901  0.48034018     0.05400
C316        C  0.13126717  0.17886842  0.49639065     0.03500
H317        H  0.13293392  0.16959157  0.45001698     0.08600
H318        H  0.12617958  0.17870460  0.51128742     0.07400
N319        N  0.77545319  0.21679442  0.44334027    -0.26900
N320        N  0.76120326  0.22589620  0.45252082    -0.34800
C321        C  0.75018934  0.23530417  0.43942737     0.01400
C322        C  0.75802774  0.23217469  0.42116010     0.07400
C323        C  0.77390926  0.22018761  0.42415000    -0.05700
H324        H  0.73725936  0.24358944  0.44291784     0.08100
H325        H  0.78332662  0.21396463  0.41316072     0.09300
Cu326      Cu  0.75676186  0.22439555  0.48225990     0.44200
Cu327      Cu  0.79557064  0.19930233  0.45721341     0.42000
Cu328      Cu  0.78797926  0.19172948  0.50901315     0.43900
N329        N  0.75439925  0.21978136  0.51191651    -0.34300
N330        N  0.76552152  0.20754118  0.52170953    -0.28600
C331        C  0.76053818  0.20822911  0.54063822    -0.04700
C332        C  0.74550635  0.22147330  0.54280280     0.07500
C333        C  0.74215401  0.22866335  0.52433231     0.01300
H334        H  0.76782578  0.20027396  0.55207951     0.09000
H335        H  0.73185015  0.23984788  0.52028247     0.08100
N336        N  0.81011304  0.17865465  0.49303099    -0.35800
N337        N  0.81285398  0.18152141  0.47420626    -0.28000
C338        C  0.82845428  0.17128738  0.46834256    -0.03200
C339        C  0.83579874  0.16128090  0.48416179     0.05400
C340        C  0.82397130  0.16652243  0.49962896     0.03500
H341        H  0.83425383  0.17142906  0.45369485     0.08600
H342        H  0.82543086  0.16196601  0.51461641     0.07400
N343        N  0.78070251  0.75731270  0.44218745    -0.26900
N344        N  0.76919438  0.74490580  0.45136678    -0.34800
C345        C  0.75802660  0.73565719  0.43824986     0.01400
C346        C  0.76251832  0.74277503  0.42000727     0.07400
C347        C  0.77709957  0.75632148  0.42298033    -0.05700
H348        H  0.74714123  0.72484165  0.44177487     0.08100
H349        H  0.78446291  0.76489129  0.41201994     0.09300
Cu350      Cu  0.76806909  0.74175373  0.48134224     0.44200
Cu351      Cu  0.80057255  0.77524086  0.45610803     0.42000
Cu352      Cu  0.79931631  0.77325866  0.50881114     0.43900
N353        N  0.76758593  0.74331833  0.51145998    -0.34300
N354        N  0.77887998  0.75517399  0.52152909    -0.28600
C355        C  0.77457505  0.75352656  0.54054002    -0.04700
C356        C  0.75968450  0.74010428  0.54251750     0.07500
C357        C  0.75579610  0.73375231  0.52380369     0.01300
H358        H  0.78196169  0.76135846  0.55200187     0.09000
H359        H  0.74488040  0.72327798  0.51944796     0.08100
N360        N  0.81907127  0.78967612  0.49310079    -0.35800
N361        N  0.81954245  0.79052511  0.47389676    -0.28000
C362        C  0.83459714  0.80176477  0.46840568    -0.03200
C363        C  0.84391991  0.80846337  0.48495683     0.05400
C364        C  0.83380416  0.80029548  0.50032582     0.03500
H365        H  0.83869483  0.80454180  0.45346039     0.08600
H366        H  0.83724983  0.80148016  0.51563320     0.07400
N367        N  0.19798376  0.76256222  0.45157018    -0.26900
N368        N  0.21207091  0.75353292  0.46104404    -0.34800
C369        C  0.22402152  0.74495059  0.44812230     0.01400
C370        C  0.21697585  0.74848139  0.42964399     0.07400
C371        C  0.20052180  0.75980085  0.43233474    -0.05700
H372        H  0.23678753  0.73656525  0.45190738     0.08100
H373        H  0.19119874  0.76572062  0.42114227     0.09300
Cu374      Cu  0.21412467  0.75269262  0.49112160     0.44200
Cu375      Cu  0.17636706  0.77873317  0.46533845     0.42000
Cu376      Cu  0.17802498  0.78010433  0.51816279     0.43900
N377        N  0.21210530  0.75253115  0.52122374    -0.34300
N378        N  0.19906474  0.76260241  0.53118457    -0.28600
C379        C  0.20152139  0.75901455  0.55028712    -0.04700
C380        C  0.21661372  0.74583026  0.55238710     0.07500
C381        C  0.22310054  0.74221689  0.53366784     0.01300
H382        H  0.19274544  0.76525051  0.56177616     0.09000
H383        H  0.23507411  0.73295363  0.52935497     0.08100
N384        N  0.15786025  0.79551533  0.50159642    -0.35800
N385        N  0.15723247  0.79493545  0.48237439    -0.28000
C386        C  0.14230239  0.80598248  0.47618829    -0.03200
C387        C  0.13316207  0.81412020  0.49224291     0.05400
C388        C  0.14331243  0.80693332  0.50810404     0.03500
H389        H  0.13808284  0.80755194  0.46111381     0.08600
H390        H  0.14017274  0.80960461  0.52330281     0.07400
C391        C  0.96982079  0.88347118  0.49358039     0.80600
N392        N  0.96919785  0.90324336  0.49313164    -0.77700
C393        C  0.98577767  0.91384185  0.49121158     0.83000
N394        N  0.00321631  0.90451746  0.49035248    -0.77700
C395        C  0.00404660  0.88471794  0.49037718     0.83100
N396        N  0.98729318  0.87434923  0.49207509    -0.79400
C397        C  0.04437646  0.84746539  0.48110240    -0.22100
C398        C  0.05960657  0.85546355  0.49201045     0.09900
C399        C  0.05673622  0.87325246  0.50185032     0.10300
C400        C  0.03858872  0.88258898  0.50069028    -0.17000
C401        C  0.02316601  0.87459090  0.48987987    -0.27500
C402        C  0.02630436  0.85690562  0.47958841     0.18600
C403        C  0.07858565  0.84514700  0.49258784     0.12600
C404        C  0.07276524  0.88221141  0.51379660    -0.11800
H405        H  0.03632558  0.89605583  0.50861149     0.12800
C406        C  0.01146904  0.84789357  0.46615442    -0.22600
H407        H  0.04677245  0.83392134  0.47333405     0.08500
C408        C  0.08219730  0.83008396  0.50601597     0.04800
C409        C  0.10032608  0.82062720  0.50586857    -0.19900
C410        C  0.11497324  0.82583861  0.49255840    -0.12200
C411        C  0.11150537  0.84147685  0.47954284     0.13500
C412        C  0.09324381  0.85067170  0.47954008    -0.22600
C413        C  0.06685837  0.82395028  0.52041414    -0.05700
H414        H  0.10289927  0.80876293  0.51591670     0.15100
C415        C  0.12682675  0.84952210  0.46606157    -0.15800
H416        H  0.09051032  0.86250547  0.46948333     0.09400
H417        H  0.00630192  0.83390272  0.47236573     0.07200
H418        H  0.01830371  0.84496974  0.45179776     0.08400
H419        H  0.99882472  0.85738651  0.46324343     0.07500
H420        H  0.08550769  0.88535206  0.50437716     0.02400
H421        H  0.07719663  0.87199669  0.52548093     0.02800
H422        H  0.06808335  0.89605960  0.52071617     0.06300
H423        H  0.07205664  0.81202019  0.52997639     0.05300
H424        H  0.05375812  0.81872842  0.51255229    -0.00400
H425        H  0.06279928  0.83650192  0.52975954     0.01000
H426        H  0.12238275  0.84707349  0.45073142     0.04700
H427        H  0.14138316  0.84308026  0.46837201     0.06600
H428        H  0.12835077  0.86542344  0.46857750     0.07500
C429        C  0.93206280  0.84305058  0.49948388    -0.22100
C430        C  0.91659146  0.85065885  0.48867929     0.09900
C431        C  0.91833936  0.86923675  0.48018044     0.10300
C432        C  0.93577834  0.87962453  0.48229578    -0.17000
C433        C  0.95144921  0.87207786  0.49306508    -0.27500
C434        C  0.94928277  0.85369686  0.50225985     0.18600
C435        C  0.89817300  0.83953579  0.48757833     0.12600
C436        C  0.90183949  0.87802793  0.46875966    -0.11800
H437        H  0.93722280  0.89366278  0.47527302     0.12800
C438        C  0.96411476  0.84523258  0.51600627    -0.22600
H439        H  0.93038387  0.82898467  0.50643131     0.08500
C440        C  0.89556552  0.82413801  0.47425856     0.04800
C441        C  0.87758032  0.81447108  0.47357381    -0.19900
C442        C  0.86216562  0.81986308  0.48591113    -0.12200
C443        C  0.86480760  0.83551812  0.49910111     0.13500
C444        C  0.88289645  0.84489076  0.49995108    -0.22600
C445        C  0.91170325  0.81800134  0.46075024    -0.05700
H446        H  0.87563200  0.80245375  0.46353211     0.15100
C447        C  0.84881086  0.84346166  0.51186473    -0.15800
H448        H  0.88497580  0.85685834  0.51003746     0.09400
H449        H  0.97050551  0.83186568  0.50954192     0.07200
H450        H  0.95687569  0.84133181  0.52992153     0.08400
H451        H  0.97592185  0.85547050  0.51982175     0.07500
H452        H  0.88891919  0.87986962  0.47828181     0.02400
H453        H  0.89801688  0.86834881  0.45639658     0.02800
H454        H  0.90573054  0.89254537  0.46281840     0.06300
H455        H  0.90719496  0.80577480  0.45117314     0.05300
H456        H  0.92448415  0.81317494  0.46933655    -0.00400
H457        H  0.91598962  0.83044319  0.45138651     0.01000
H458        H  0.85254924  0.84102939  0.52738051     0.04700
H459        H  0.83440340  0.83697050  0.50887765     0.06600
H460        H  0.84732110  0.85935538  0.50933183     0.07500
C461        C  0.97098639  0.96599579  0.47908792    -0.22100
C462        C  0.98368262  0.97657201  0.49099807     0.09900
C463        C  0.99708648  0.96655885  0.50285102     0.10300
C464        C  0.99756824  0.94610442  0.50242552    -0.17000
C465        C  0.98489770  0.93540779  0.49045486    -0.27500
C466        C  0.97158112  0.94557117  0.47839865     0.18600
C467        C  0.98326082  0.99815670  0.49015788     0.12600
C468        C  0.01089254  0.97749952  0.51588113    -0.11800
H469        H  0.00775387  0.93840225  0.51165900     0.12800
C470        C  0.95845424  0.93562314  0.46389634    -0.22600
H471        H  0.96090249  0.97379211  0.46981062     0.08500
C472        C  0.99386680  0.00843355  0.47590713     0.04800
C473        C  0.99320761  0.02885674  0.47569059    -0.19900
C474        C  0.98213009  0.03926967  0.48936745    -0.12200
C475        C  0.97175025  0.02893027  0.50388533     0.13500
C476        C  0.97226459  0.00847564  0.50390788    -0.22600
C477        C  0.00591913  0.99781865  0.46097147    -0.05700
H478        H  0.00122528  0.03675347  0.46463908     0.15100
C479        C  0.96071428  0.03883972  0.52007807    -0.15800
H480        H  0.96433446  0.00051029  0.51496796     0.09400
H481        H  0.96070119  0.94214930  0.44929258     0.07200
H482        H  0.94303465  0.93773847  0.46823156     0.08400
H483        H  0.96134226  0.91986877  0.46231932     0.07500
H484        H  0.00252487  0.98641353  0.52645724     0.02400
H485        H  0.02026746  0.98721340  0.50701132     0.02800
H486        H  0.02045567  0.96748503  0.52418662     0.06300
H487        H  0.01338104  0.00804498  0.45092849     0.05300
H488        H  0.99645226  0.98813041  0.45217081    -0.00400
H489        H  0.01718253  0.98892329  0.46835393     0.01000
H490        H  0.94499549  0.03535657  0.51882768     0.04700
H491        H  0.96246168  0.05485103  0.52018518     0.06600
H492        H  0.96610909  0.03345624  0.53431040     0.07500
C493        C  0.92433750  0.12773110  0.47562972    -0.22100
C494        C  0.90878105  0.11953883  0.48589982     0.09900
C495        C  0.91138628  0.10177436  0.49576544     0.10300
C496        C  0.92971469  0.09275090  0.49547717    -0.17000
C497        C  0.94555754  0.10096949  0.48539240    -0.27500
C498        C  0.94268497  0.11870208  0.47514641     0.18600
C499        C  0.88982758  0.12981040  0.48599825     0.12600
C500        C  0.89476334  0.09230460  0.50647454    -0.11800
H501        H  0.93166625  0.07919236  0.50327671     0.12800
C502        C  0.95850455  0.12795796  0.46308273    -0.22600
H503        H  0.92204579  0.14128881  0.46790473     0.08500
C504        C  0.88525835  0.14373394  0.50037779     0.04800
C505        C  0.86724281  0.15331367  0.49969896    -0.19900
C506        C  0.85374960  0.14940294  0.48487283    -0.12200
C507        C  0.85816941  0.13499115  0.47075823     0.13500
C508        C  0.87628557  0.12558523  0.47138571    -0.22600
C509        C  0.89952394  0.14866782  0.51624866    -0.05700
H510        H  0.86389430  0.16431696  0.51051260     0.15100
C511        C  0.84400983  0.12854148  0.45530071    -0.15800
H512        H  0.87979373  0.11467081  0.46053731     0.09400
H513        H  0.97051038  0.13302963  0.47259035     0.07200
H514        H  0.95310512  0.14084119  0.45496754     0.08400
H515        H  0.96410206  0.11732300  0.45226475     0.07500
H516        H  0.88274660  0.08913693  0.49616680     0.02400
H517        H  0.88933321  0.10217181  0.51806206     0.02800
H518        H  0.89923054  0.07840048  0.51337647     0.06300
H519        H  0.89369094  0.15993799  0.52627820     0.05300
H520        H  0.91318881  0.15430935  0.50973617    -0.00400
H521        H  0.90284425  0.13546671  0.52491588     0.01000
H522        H  0.84984846  0.13229061  0.44071385     0.04700
H523        H  0.82939106  0.13507151  0.45693254     0.06600
H524        H  0.84205378  0.11251706  0.45614510     0.07500
C525        C  0.07323898  0.14778909  0.46661526    -0.22100
C526        C  0.07009466  0.13569208  0.48269187     0.09900
C527        C  0.08389847  0.13517133  0.49780504     0.10300
C528        C  0.10057192  0.14687060  0.49651662    -0.17000
C529        C  0.10377787  0.15925259  0.48053810    -0.27500
C530        C  0.08966075  0.15991341  0.46547824     0.18600
C531        C  0.05196614  0.12405796  0.48356550     0.12600
C532        C  0.08108528  0.12219219  0.51523279    -0.11800
H533        H  0.11129732  0.14615490  0.50803130     0.12800
C534        C  0.09061802  0.17382805  0.44856548    -0.22600
H535        H  0.06242274  0.14824816  0.45515390     0.08500
C536        C  0.03491621  0.13151813  0.49218780     0.04800
C537        C  0.01794531  0.12016222  0.49226774    -0.19900
C538        C  0.01757320  0.10141251  0.48400120    -0.12200
C539        C  0.03483211  0.09397304  0.47534591     0.13500
C540        C  0.05176214  0.10546530  0.47522706    -0.22600
C541        C  0.03460552  0.15153237  0.50117977    -0.05700
H542        H  0.00490276  0.12596244  0.49897515     0.15100
C543        C  0.03553956  0.07428578  0.46564253    -0.15800
H544        H  0.06495310  0.09997072  0.46853717     0.09400
H545        H  0.07660986  0.18179388  0.44737554     0.07200
H546        H  0.09307676  0.16556528  0.43489042     0.08400
H547        H  0.10201209  0.18505866  0.45015495     0.07500
H548        H  0.08013806  0.10678260  0.51045232     0.02400
H549        H  0.06748343  0.12618295  0.52296747     0.02800
H550        H  0.09332637  0.12348710  0.52568918     0.06300
H551        H  0.02008931  0.15513790  0.50730977     0.05300
H552        H  0.03823567  0.16259164  0.48998972    -0.00400
H553        H  0.04540531  0.15239357  0.51313061     0.01000
H554        H  0.04979504  0.07160701  0.45850062     0.04700
H555        H  0.02409875  0.07332511  0.45429355     0.06600
H556        H  0.03343215  0.06261798  0.47658446     0.07500
C557        C  0.23982646  0.25334198  0.33583219    -0.22100
C558        C  0.25151809  0.25109757  0.35233619     0.09900
C559        C  0.27141512  0.25593196  0.35150073     0.10300
C560        C  0.27906813  0.26366814  0.33427616    -0.17000
C561        C  0.26734891  0.26635563  0.31775824    -0.27500
C562        C  0.24754718  0.26061710  0.31839932     0.18600
C563        C  0.24267808  0.24361091  0.37040607     0.12600
C564        C  0.28452014  0.25295808  0.36880182    -0.11800
H565        H  0.29423908  0.26795868  0.33378894     0.12800
C566        C  0.23430574  0.26133188  0.30095308    -0.22600
H567        H  0.22461457  0.24920639  0.33652125     0.08500
C568        C  0.23528224  0.25635380  0.38469705     0.04800
C569        C  0.22777530  0.24861221  0.40199706    -0.19900
C570        C  0.22720671  0.22843912  0.40509635    -0.12200
C571        C  0.23456021  0.21567215  0.39069248     0.13500
C572        C  0.24216798  0.22347221  0.37345849    -0.22600
C573        C  0.23514766  0.27805820  0.38156966    -0.05700
H574        H  0.22200194  0.25831723  0.41302979     0.15100
C575        C  0.23526681  0.19388682  0.39321105    -0.15800
H576        H  0.24801805  0.21380291  0.36242972     0.09400
H577        H  0.22225749  0.27172972  0.30374880     0.07200
H578        H  0.22804394  0.24665326  0.29835841     0.08400
H579        H  0.24188934  0.26567025  0.28741941     0.07500
H580        H  0.28464976  0.23732554  0.37287740     0.02400
H581        H  0.27920784  0.26166110  0.38133377     0.02800
H582        H  0.29971760  0.25745773  0.36564432     0.06300
H583        H  0.22872630  0.28590238  0.39417015     0.05300
H584        H  0.22640735  0.28158430  0.36846829    -0.00400
H585        H  0.25022086  0.28344229  0.37946270     0.01000
H586        H  0.22629150  0.18682228  0.38179137     0.04700
H587        H  0.22996583  0.18896971  0.40759870     0.06600
H588        H  0.25053012  0.18880639  0.39170379     0.07500
C589        C  0.47342036  0.06729886  0.81610183    -0.22100
C590        C  0.48505894  0.06714860  0.83280489     0.09900
C591        C  0.49650770  0.08356219  0.83733868     0.10300
C592        C  0.49572625  0.09999865  0.82525346    -0.17000
C593        C  0.48381955  0.10038894  0.80865522    -0.27500
C594        C  0.47290218  0.08355623  0.80374061     0.18600
C595        C  0.48554939  0.04941601  0.84505364     0.12600
C596        C  0.50937006  0.08377521  0.85506249    -0.11800
H597        H  0.50417345  0.11277720  0.82901994     0.12800
C598        C  0.46131713  0.08171487  0.78522003    -0.22600
H599        H  0.46499565  0.05445561  0.81246559     0.08500
C600        C  0.47186808  0.04630021  0.86003579     0.04800
C601        C  0.47328854  0.02948162  0.87156279    -0.19900
C602        C  0.48806432  0.01571768  0.86838657    -0.12200
C603        C  0.50200546  0.01910360  0.85355712     0.13500
C604        C  0.50036052  0.03578023  0.84191834    -0.22600
C605        C  0.45584787  0.06076065  0.86384429    -0.05700
H606        H  0.46268062  0.02693564  0.88295940     0.15100
C607        C  0.51931379  0.00605392  0.85008587    -0.15800
H608        H  0.51100652  0.03842222  0.83056988     0.09400
H609        H  0.44561768  0.08034970  0.78876984     0.07200
H610        H  0.46602156  0.06846025  0.77723254     0.08400
H611        H  0.46337908  0.09409730  0.77516214     0.07500
H612        H  0.52031924  0.07194602  0.85399190     0.02400
H613        H  0.50042297  0.08156380  0.86833132     0.02800
H614        H  0.51725782  0.09780351  0.85658805     0.06300
H615        H  0.44640721  0.05615718  0.87612791     0.05300
H616        H  0.44662129  0.06223791  0.85068589    -0.00400
H617        H  0.46221725  0.07515480  0.86750828     0.01000
H618        H  0.51831694  0.99951437  0.83534475     0.04700
H619        H  0.52070389  0.99421375  0.86088863     0.06600
H620        H  0.53286537  0.01481334  0.85098060     0.07500
C621        C  0.50620727  0.91303736  0.86825295    -0.22100
C622        C  0.49075898  0.90765687  0.85611577     0.09900
C623        C  0.47526894  0.92072137  0.85294569     0.10300
C624        C  0.47570357  0.93908876  0.86183802    -0.17000
C625        C  0.49117357  0.94455100  0.87394736    -0.27500
C626        C  0.50671239  0.93141294  0.87713502     0.18600
C627        C  0.49155889  0.88868489  0.84600279     0.12600
C628        C  0.45842683  0.91534077  0.84001080    -0.11800
H629        H  0.46382465  0.94919120  0.85948489     0.12800
C630        C  0.52438036  0.93647814  0.88909794    -0.22600
H631        H  0.51815893  0.90297681  0.87045086     0.08500
C632        C  0.50297883  0.88616875  0.82913902     0.04800
C633        C  0.50272879  0.86819829  0.81950044    -0.19900
C634        C  0.49110145  0.85281278  0.82618387    -0.12200
C635        C  0.47998246  0.85521046  0.84338331     0.13500
C636        C  0.48031963  0.87320467  0.85303483    -0.22600
C637        C  0.51494913  0.90263220  0.82099501    -0.05700
H638        H  0.51116475  0.86634732  0.80629484     0.15100
C639        C  0.46805150  0.83909893  0.85229585    -0.15800
H640        H  0.47172112  0.87521171  0.86611984     0.09400
H641        H  0.53765281  0.93482569  0.88001751     0.07200
H642        H  0.52540580  0.92643282  0.90169362     0.08400
H643        H  0.52422721  0.95161456  0.89464153     0.07500
H644        H  0.45084154  0.90239099  0.84598206     0.02400
H645        H  0.46380999  0.91196672  0.82515170     0.02800
H646        H  0.44767936  0.92735557  0.83889888     0.06300
H647        H  0.52267138  0.89830385  0.80746479     0.05300
H648        H  0.52601163  0.90725680  0.83179803    -0.00400
H649        H  0.50535150  0.91515475  0.81753513     0.01000
H650        H  0.47276186  0.83676696  0.86756258     0.04700
H651        H  0.46965138  0.82500290  0.84465330     0.06600
H652        H  0.45244700  0.84326771  0.85226198     0.07500
C653        C  0.47599372  0.00034120  0.00473836    -0.22100
C654        C  0.48734839  0.98620356  0.99543029     0.09900
C655        C  0.49816552  0.97287758  0.00662396     0.10300
C656        C  0.49712747  0.97382396  0.02698515    -0.17000
C657        C  0.48569401  0.98792051  0.03646833    -0.27500
C658        C  0.47476889  0.00124937  0.02511145     0.18600
C659        C  0.48756440  0.98552445  0.97391164     0.12600
C660        C  0.51113360  0.95795539  0.99709061    -0.11800
H661        H  0.50566474  0.96373946  0.03556254     0.12800
C662        C  0.46100605  0.01604321  0.03370003    -0.22600
H663        H  0.46764882  0.01047227  0.99599958     0.08500
C664        C  0.47513297  0.97295639  0.96349211     0.04800
C665        C  0.47619503  0.97251273  0.94311601    -0.19900
C666        C  0.48920884  0.98453318  0.93291382    -0.12200
C667        C  0.50172443  0.99710087  0.94343946     0.13500
C668        C  0.50054026  0.99756896  0.96382010    -0.22600
C669        C  0.46054882  0.96026997  0.97385680    -0.05700
H670        H  0.46662889  0.96289127  0.93506497     0.15100
C671        C  0.51712311  0.00951598  0.93393155    -0.15800
H672        H  0.51013427  0.00709695  0.97195598     0.09400
H673        H  0.44644253  0.01436660  0.02692098     0.07200
H674        H  0.46648015  0.03093687  0.03064251     0.08400
H675        H  0.45885233  0.01441965  0.04955208     0.07500
H676        H  0.52231432  0.96541301  0.98812705     0.02400
H677        H  0.50244761  0.94820517  0.98761201     0.02800
H678        H  0.51872736  0.94878938  0.00799993     0.06300
H679        H  0.45183683  0.95145405  0.96348555     0.05300
H680        H  0.45040435  0.96951804  0.98239035    -0.00400
H681        H  0.46808226  0.95012428  0.98386488     0.01000
H682        H  0.51387799  0.02512375  0.93659950     0.04700
H683        H  0.51843975  0.00714535  0.91807197     0.06600
H684        H  0.53152310  0.00603879  0.94035527     0.07500
C685        C  0.49745611  0.91920229  0.10415355    -0.22100
C686        C  0.48713211  0.91864698  0.12172264     0.09900
C687        C  0.47705480  0.93535122  0.12810721     0.10300
C688        C  0.47746723  0.95229199  0.11670479    -0.17000
C689        C  0.48764230  0.95291398  0.09896855    -0.27500
C690        C  0.49784448  0.93610199  0.09264495     0.18600
C691        C  0.48733762  0.90048067  0.13337335     0.12600
C692        C  0.46582377  0.93524525  0.14692883    -0.11800
H693        H  0.46967009  0.96510359  0.12161294     0.12800
C694        C  0.50973544  0.93598392  0.07420510    -0.22600
H695        H  0.50529622  0.90632768  0.09948436     0.08500
C696        C  0.47441526  0.88503130  0.12946611     0.04800
C697        C  0.47520389  0.86811272  0.14091845    -0.19900
C698        C  0.48875890  0.86619015  0.15610754    -0.12200
C699        C  0.50151616  0.88192550  0.16016082     0.13500
C700        C  0.50064493  0.89881435  0.14867418    -0.22600
C701        C  0.45972604  0.88651164  0.11329870    -0.05700
H702        H  0.46529075  0.85622932  0.13786548     0.15100
C703        C  0.51549306  0.88154379  0.17702906    -0.15800
H704        H  0.51036125  0.91088178  0.15166507     0.09400
H705        H  0.50006855  0.93757460  0.06140372     0.07200
H706        H  0.51787109  0.92213249  0.07238188     0.08400
H707        H  0.52048394  0.94804999  0.07451082     0.07500
H708        H  0.47582139  0.93225241  0.15923450     0.02400
H709        H  0.45444042  0.92379052  0.14642186     0.02800
H710        H  0.45858931  0.94943792  0.14969295     0.06300
H711        H  0.45058165  0.87322210  0.11227008     0.05300
H712        H  0.46732254  0.88849045  0.09918031    -0.00400
H713        H  0.44999959  0.89914797  0.11592576     0.01000
H714        H  0.52723853  0.87086973  0.17429337     0.04700
H715        H  0.50762500  0.87782552  0.19063973     0.06600
H716        H  0.52260228  0.89589885  0.17922952     0.07500
C717        C  0.37407521  0.22540561  0.24502870    -0.22100
C718        C  0.37350698  0.24577488  0.24551559     0.09900
C719        C  0.38978608  0.25656886  0.23931813     0.10300
C720        C  0.40624938  0.24666296  0.23242660    -0.17000
C721        C  0.40695338  0.22620469  0.23194369    -0.27500
C722        C  0.39073426  0.21542274  0.23871971     0.18600
C723        C  0.35594212  0.25537032  0.25339674     0.12600
C724        C  0.38983567  0.27848225  0.24018027    -0.11800
H725        H  0.41871336  0.25495621  0.22745653     0.12800
C726        C  0.39072756  0.19357500  0.24070460    -0.22600
H727        H  0.36161354  0.21723110  0.25022523     0.08500
C728        C  0.33991252  0.25977832  0.24143808     0.04800
C729        C  0.32308002  0.26767575  0.24984458    -0.19900
C730        C  0.32198820  0.27140018  0.26991357    -0.12200
C731        C  0.33847630  0.26777435  0.28174487     0.13500
C732        C  0.35513044  0.25949648  0.27333385    -0.22600
C733        C  0.34052872  0.25595340  0.21987265    -0.05700
H734        H  0.31054482  0.27063035  0.24076212     0.15100
C735        C  0.33934225  0.27291800  0.30306428    -0.15800
H736        H  0.36765539  0.25633181  0.28237246     0.09400
H737        H  0.37947784  0.18724639  0.23100256     0.07200
H738        H  0.38723106  0.18961418  0.25597515     0.08400
H739        H  0.40490720  0.18680772  0.23727035     0.07500
H740        H  0.38776863  0.28336127  0.25544531     0.02400
H741        H  0.37786785  0.28435839  0.23110011     0.02800
H742        H  0.40376226  0.28465646  0.23477621     0.06300
H743        H  0.32674923  0.26028216  0.21265046     0.05300
H744        H  0.34291432  0.24020403  0.21715318    -0.00400
H745        H  0.35257134  0.26437321  0.21316892     0.01000
H746        H  0.34101458  0.25943609  0.31179481     0.04700
H747        H  0.32634209  0.28087975  0.30827203     0.06600
H748        H  0.35207856  0.28249425  0.30575278     0.07500
C749        C  0.47765226  0.09358193  0.12276618    -0.22100
C750        C  0.49116040  0.07947558  0.12850316     0.09900
C751        C  0.50470267  0.08392353  0.14324009     0.10300
C752        C  0.50412344  0.10230713  0.15224278    -0.17000
C753        C  0.49037511  0.11646325  0.14678066    -0.27500
C754        C  0.47731708  0.11214179  0.13136933     0.18600
C755        C  0.49114276  0.06032394  0.11846612     0.12600
C756        C  0.51959759  0.06916879  0.14958547    -0.11800
H757        H  0.51421400  0.10546276  0.16392558     0.12800
C758        C  0.46347709  0.12684427  0.12284320    -0.22600
H759        H  0.46755297  0.09021143  0.11112921     0.08500
C760        C  0.47910678  0.04492378  0.12471783     0.04800
C761        C  0.47933874  0.02719644  0.11450412    -0.19900
C762        C  0.49127375  0.02451064  0.09809716    -0.12200
C763        C  0.50374802  0.03986770  0.09217917     0.13500
C764        C  0.50327157  0.05764551  0.10229428    -0.22600
C765        C  0.46592531  0.04728237  0.14207253    -0.05700
H766        H  0.46983775  0.01548292  0.11913013     0.15100
C767        C  0.51833361  0.03793609  0.07588339    -0.15800
H768        H  0.51267305  0.06946147  0.09770481     0.09400
H769        H  0.44826091  0.12242893  0.12599875     0.07200
H770        H  0.46550652  0.12742933  0.10682253     0.08400
H771        H  0.46591773  0.14180606  0.12825554     0.07500
H772        H  0.52899570  0.06514023  0.13706975     0.02400
H773        H  0.51217681  0.05592462  0.15510409     0.02800
H774        H  0.52906597  0.07492625  0.16134121     0.06300
H775        H  0.45747405  0.03382565  0.14503959     0.05300
H776        H  0.45547828  0.05930701  0.13941798    -0.00400
H777        H  0.47470070  0.05071561  0.15517920     0.01000
H778        H  0.51438840  0.04798348  0.06388267     0.04700
H779        H  0.51950234  0.02298712  0.07001231     0.06600
H780        H  0.53301242  0.04189829  0.08134036     0.07500
C781        C  0.81800173  0.49411295  0.06286591    -0.22100
C782        C  0.83562635  0.48389484  0.06272815     0.09900
C783        C  0.84127052  0.47321328  0.07927858     0.10300
C784        C  0.82930466  0.47339112  0.09584863    -0.17000
C785        C  0.81185670  0.48405382  0.09623503    -0.27500
C786        C  0.80587089  0.49411012  0.07928241     0.18600
C787        C  0.84810892  0.48506334  0.04520336     0.12600
C788        C  0.85989443  0.46167082  0.07941178    -0.11800
H789        H  0.83381892  0.46552525  0.10873616     0.12800
C790        C  0.78656315  0.50436178  0.07759040    -0.22600
H791        H  0.81361667  0.50206252  0.04997459     0.08500
C792        C  0.84390572  0.47428560  0.02826311     0.04800
C793        C  0.85556203  0.47677805  0.01169010    -0.19900
C794        C  0.87134729  0.48978497  0.01166517    -0.12200
C795        C  0.87541750  0.50072914  0.02868418     0.13500
C796        C  0.86387104  0.49798359  0.04529765    -0.22600
C797        C  0.82729238  0.45999491  0.02777092    -0.05700
H798        H  0.85245285  0.46835631  0.99871795     0.15100
C799        C  0.89102908  0.51612806  0.02973112    -0.15800
H800        H  0.86682142  0.50643790  0.05829915     0.09400
H801        H  0.77851622  0.49848664  0.06487047     0.07200
H802        H  0.78900616  0.52017948  0.07537392     0.08400
H803        H  0.77708783  0.50233404  0.09044394     0.07500
H804        H  0.87248602  0.47153105  0.07715710     0.02400
H805        H  0.85957681  0.45065993  0.06757810     0.02800
H806        H  0.86201962  0.45394017  0.09342870     0.06300
H807        H  0.82622989  0.45252669  0.01347161     0.05300
H808        H  0.81334757  0.46767886  0.03046565    -0.00400
H809        H  0.82944718  0.44875296  0.03915657     0.01000
H810        H  0.88450508  0.53005867  0.03471960     0.04700
H811        H  0.89806281  0.51916003  0.01558510     0.06600
H812        H  0.90234435  0.51162720  0.04032169     0.07500
C813        C  0.85302946  0.49480163  0.86902127    -0.22100
C814        C  0.84460613  0.48687469  0.88581095     0.09900
C815        C  0.82636105  0.47756411  0.88459088     0.10300
C816        C  0.81690694  0.47643389  0.86654331    -0.17000
C817        C  0.82521193  0.48451911  0.84971611    -0.27500
C818        C  0.84368287  0.49358043  0.85092116     0.18600
C819        C  0.85520961  0.48844852  0.90450786     0.12600
C820        C  0.81694295  0.46872018  0.90229356    -0.11800
H821        H  0.80278423  0.46948265  0.86561693     0.12800
C822        C  0.85436342  0.50144192  0.83345122    -0.22600
H823        H  0.86713497  0.50179501  0.87002210     0.08500
C824        C  0.87131559  0.47646199  0.90872085     0.04800
C825        C  0.88098079  0.47863242  0.92656695    -0.19900
C826        C  0.87475542  0.49233111  0.94041879    -0.12200
C827        C  0.85871257  0.50453891  0.93602209     0.13500
C828        C  0.84910410  0.50231581  0.91815775    -0.22600
C829        C  0.87795840  0.46103532  0.89461399    -0.05700
H830        H  0.89315366  0.46920113  0.92994942     0.15100
C831        C  0.85165670  0.52050039  0.94935625    -0.15800
H832        H  0.83685328  0.51163916  0.91473212     0.09400
H833        H  0.86883595  0.49433722  0.83236245     0.07200
H834        H  0.85649037  0.51737425  0.83514404     0.08400
H835        H  0.84673602  0.49870551  0.81955187     0.07500
H836        H  0.81414476  0.48017551  0.91334308     0.02400
H837        H  0.82668672  0.45749081  0.90858867     0.02800
H838        H  0.80283673  0.46170050  0.89871101     0.06300
H839        H  0.89045441  0.45259721  0.90039946     0.05300
H840        H  0.88257328  0.46787296  0.88074213    -0.00400
H841        H  0.86585218  0.45073055  0.89171952     0.01000
H842        H  0.85139805  0.53450332  0.94130448     0.04700
H843        H  0.86106224  0.52274615  0.96221097     0.06600
H844        H  0.83667518  0.51711709  0.95437509     0.07500
C845        C  0.96765132  0.50146485  0.96858953    -0.22100
C846        C  0.97617885  0.49214099  0.98454933     0.09900
C847        C  0.96430211  0.48213399  0.99793201     0.10300
C848        C  0.94406204  0.48190318  0.99518286    -0.17000
C849        C  0.93532271  0.49132864  0.97924458    -0.27500
C850        C  0.94741664  0.50116340  0.96566541     0.18600
C851        C  0.99760896  0.49319842  0.98696401     0.12600
C852        C  0.97302181  0.47154501  0.01500135    -0.11800
H853        H  0.93501292  0.47423655  0.00557023     0.12800
C854        C  0.93927845  0.51196721  0.94841870    -0.22600
H855        H  0.97694838  0.50913486  0.95841454     0.08500
C856        C  0.01023387  0.48178093  0.97548338     0.04800
C857        C  0.03041627  0.48380940  0.97774284    -0.19900
C858        C  0.03832753  0.49667646  0.99152285    -0.12200
C859        C  0.02562115  0.50790194  0.00327604     0.13500
C860        C  0.00540241  0.50611905  0.00070951    -0.22600
C861        C  0.00239425  0.46722394  0.96108626    -0.05700
H862        H  0.04010606  0.47506238  0.96886205     0.15100
C863        C  0.03321352  0.52222377  0.01805432    -0.15800
H864        H  0.99557724  0.51488354  0.00941096     0.09400
H865        H  0.93228631  0.50159489  0.93820581     0.07200
H866        H  0.95081892  0.51973313  0.94018676     0.08400
H867        H  0.92853727  0.52297520  0.95339070     0.07500
H868        H  0.98082784  0.48198572  0.02453507     0.02400
H869        H  0.98340852  0.46034264  0.00971540     0.02800
H870        H  0.96172173  0.46415381  0.02388302     0.06300
H871        H  0.01425992  0.45917363  0.95360990     0.05300
H872        H  0.99364096  0.47477682  0.94984247    -0.00400
H873        H  0.99308361  0.45647208  0.96875340     0.01000
H874        H  0.02123818  0.53049071  0.02511021     0.04700
H875        H  0.04304292  0.53283966  0.01086278     0.06600
H876        H  0.04121804  0.51442934  0.02968068     0.07500
C877        C  0.10952234  0.50575246  0.92576323    -0.22100
C878        C  0.12531079  0.49287787  0.92556797     0.09900
C879        C  0.12997288  0.48234544  0.94251760     0.10300
C880        C  0.11843746  0.48463131  0.95921968    -0.17000
C881        C  0.10245503  0.49740870  0.95949227    -0.27500
C882        C  0.09825281  0.50849548  0.94260222     0.18600
C883        C  0.13725213  0.49121328  0.90767742     0.12600
C884        C  0.14703996  0.46859930  0.94291170    -0.11800
H885        H  0.12179874  0.47618335  0.97208987     0.12800
C886        C  0.08280081  0.52405831  0.94193138    -0.22600
H887        H  0.10630136  0.51413257  0.91280024     0.08500
C888        C  0.13192308  0.47875473  0.89227184     0.04800
C889        C  0.14392117  0.47751285  0.87575698    -0.19900
C890        C  0.16112240  0.48848921  0.87427626    -0.12200
C891        C  0.16661695  0.50068582  0.89002219     0.13500
C892        C  0.15440989  0.50210129  0.90633614    -0.22600
C893        C  0.11359123  0.46679703  0.89330393    -0.05700
H894        H  0.13967845  0.46815365  0.86379249     0.15100
C895        C  0.18557120  0.51171265  0.89075354    -0.15800
H896        H  0.15854329  0.51145021  0.91836682     0.09400
H897        H  0.07126224  0.51975422  0.93149061     0.07200
H898        H  0.08941263  0.53794326  0.93695451     0.08400
H899        H  0.07606924  0.52709733  0.95623066     0.07500
H900        H  0.16068131  0.47673015  0.93995919     0.02400
H901        H  0.14512771  0.45715696  0.93165773     0.02800
H902        H  0.14854288  0.46134904  0.95726398     0.06300
H903        H  0.11160297  0.45772643  0.88007005     0.05300
H904        H  0.10079102  0.47654938  0.89471754    -0.00400
H905        H  0.11419493  0.45696634  0.90609531     0.01000
H906        H  0.18261580  0.52759933  0.89050287     0.04700
H907        H  0.19561683  0.50801074  0.87874360     0.06600
H908        H  0.19333040  0.50811497  0.90444755     0.07500
C909        C  0.24472859  0.37625132  0.22467212    -0.22100
C910        C  0.24471192  0.37296036  0.24477407     0.09900
C911        C  0.23756165  0.38745794  0.25743175     0.10300
C912        C  0.23080642  0.40509294  0.24971215    -0.17000
C913        C  0.23090388  0.40858966  0.22959278    -0.27500
C914        C  0.23810943  0.39395287  0.21687192     0.18600
C915        C  0.25310994  0.35467466  0.25249808     0.12600
C916        C  0.23682841  0.38419011  0.27909376    -0.11800
H917        H  0.22519543  0.41616726  0.25945612     0.12800
C918        C  0.24004143  0.39665844  0.19519291    -0.22600
H919        H  0.25046772  0.36512820  0.21504092     0.08500
C920        C  0.24252196  0.33708349  0.25265680     0.04800
C921        C  0.25073536  0.32053714  0.26138015    -0.19900
C922        C  0.26926601  0.32125671  0.26994144    -0.12200
C923        C  0.27972805  0.33901392  0.26997638     0.13500
C924        C  0.27164884  0.35536644  0.26090714    -0.22600
C925        C  0.22254311  0.33585829  0.24379172    -0.05700
H926        H  0.24276943  0.30691525  0.26135678     0.15100
C927        C  0.29904272  0.34152586  0.28006750    -0.15800
H928        H  0.27961575  0.36899349  0.26094081     0.09400
H929        H  0.23033302  0.38623567  0.18756256     0.07200
H930        H  0.25529871  0.39372945  0.19073739     0.08400
H931        H  0.23660038  0.41157378  0.19027603     0.07500
H932        H  0.25173960  0.38197697  0.28484293     0.02400
H933        H  0.22787805  0.37112512  0.28231745     0.02800
H934        H  0.23032682  0.39679589  0.28685809     0.06300
H935        H  0.21616432  0.32109082  0.24540438     0.05300
H936        H  0.22336160  0.33926702  0.22803353    -0.00400
H937        H  0.21270221  0.34643644  0.25104209     0.01000
H938        H  0.31046144  0.34487823  0.26914102     0.04700
H939        H  0.30357540  0.32855004  0.28845556     0.06600
H940        H  0.29806853  0.35380522  0.29054517     0.07500
C941        C  0.14522771  0.48125562  0.08724232    -0.22100
C942        C  0.12832837  0.49251417  0.08565759     0.09900
C943        C  0.12165717  0.50320762  0.10184818     0.10300
C944        C  0.13213418  0.50246373  0.11934522    -0.17000
C945        C  0.14909874  0.49120003  0.12103124    -0.27500
C946        C  0.15591990  0.48068117  0.10461107     0.18600
C947        C  0.11826291  0.49352695  0.06665288     0.12600
C948        C  0.10352446  0.51543610  0.10058082    -0.11800
H949        H  0.12693853  0.51055648  0.13185649     0.12800
C950        C  0.17482524  0.46954598  0.10437059    -0.22600
H951        H  0.15041943  0.47329785  0.07462532     0.08500
C952        C  0.12439559  0.50658553  0.05208166     0.04800
C953        C  0.11439228  0.50713954  0.03431203    -0.19900
C954        C  0.09839893  0.49490856  0.03074054    -0.12200
C955        C  0.09259229  0.48143290  0.04526609     0.13500
C956        C  0.10245472  0.48116775  0.06314077    -0.22600
C957        C  0.14138907  0.52003449  0.05539118    -0.05700
H958        H  0.11896356  0.51734695  0.02319243     0.15100
C959        C  0.07680987  0.46647193  0.04228699    -0.15800
H960        H  0.09801890  0.47095911  0.07432690     0.09400
H961        H  0.18394183  0.47469987  0.09206115     0.07200
H962        H  0.17181316  0.45379460  0.10235385     0.08400
H963        H  0.18359582  0.47153080  0.11769242     0.07500
H964        H  0.09088528  0.50605887  0.09693593     0.02400
H965        H  0.10530490  0.52665718  0.08910746     0.02800
H966        H  0.10035679  0.52296129  0.11453503     0.06300
H967        H  0.14417485  0.52945512  0.04256905     0.05300
H968        H  0.15472306  0.51138360  0.05822714    -0.00400
H969        H  0.13842058  0.52957678  0.06809736     0.01000
H970        H  0.08271955  0.45175401  0.04538450     0.04700
H971        H  0.07109590  0.46600072  0.02727263     0.06600
H972        H  0.06459424  0.46941900  0.05245027     0.07500
C973        C  0.72277366  0.32987698  0.72315559    -0.22100
C974        C  0.71219780  0.34731102  0.72260626     0.09900
C975        C  0.69373688  0.34766312  0.71366863     0.10300
C976        C  0.68628063  0.33054060  0.70534955    -0.17000
C977        C  0.69697403  0.31314059  0.70558002    -0.27500
C978        C  0.71538201  0.31273977  0.71479444     0.18600
C979        C  0.72098471  0.36522735  0.73085181     0.12600
C980        C  0.68202774  0.36616739  0.71277439    -0.11800
H981        H  0.67221258  0.33080620  0.69824458     0.12800
C982        C  0.72747654  0.29450386  0.71629697    -0.22600
H983        H  0.73693591  0.32967193  0.73008193     0.08500
C984        C  0.71932579  0.36994066  0.75076241     0.04800
C985        C  0.72755556  0.38735911  0.75768796    -0.19900
C986        C  0.73723268  0.40022213  0.74508758    -0.12200
C987        C  0.73935331  0.39513623  0.72521172     0.13500
C988        C  0.73102909  0.37779318  0.71835568    -0.22600
C989        C  0.70856928  0.35675591  0.76455886    -0.05700
H990        H  0.72599184  0.39120940  0.77290556     0.15100
C991        C  0.75081582  0.40718266  0.71090169    -0.15800
H992        H  0.73248152  0.37395759  0.70311570     0.09400
H993        H  0.73046336  0.29134118  0.73184557     0.07200
H994        H  0.74151723  0.29668397  0.70860385     0.08400
H995        H  0.72022957  0.28153604  0.71002113     0.07500
H996        H  0.69024688  0.37745418  0.70465204     0.02400
H997        H  0.67905995  0.37150921  0.72773258     0.02800
H998        H  0.66787315  0.36391801  0.70532996     0.06300
H999        H  0.70846746  0.36265488  0.77960841     0.05300
H1000       H  0.71564255  0.34223483  0.76485147    -0.00400
H1001       H  0.69325818  0.35508206  0.75971367     0.01000
H1002       H  0.76215993  0.39795859  0.70399970     0.04700
H1003       H  0.75842200  0.41965495  0.71767515     0.06600
H1004       H  0.74094457  0.41274468  0.69941120     0.07500
C1005       C  0.72123391  0.22451686  0.59255923    -0.22100
C1006       C  0.72191115  0.24462522  0.59590598     0.09900
C1007       C  0.73064204  0.25695288  0.58203425     0.10300
C1008       C  0.73773947  0.24893713  0.56465002    -0.17000
C1009       C  0.73701015  0.22880417  0.56116159    -0.27500
C1010       C  0.72870993  0.21638764  0.57536760     0.18600
C1011       C  0.71350028  0.25241758  0.61413198     0.12600
C1012       C  0.73311904  0.27841664  0.58588326    -0.11800
H1013       H  0.74441282  0.25838287  0.55392665     0.12800
C1014       C  0.72688915  0.19467502  0.57276019    -0.22600
H1015       H  0.71463735  0.21511707  0.60338047     0.08500
C1016       C  0.69463143  0.26050314  0.61463016     0.04800
C1017       C  0.68733684  0.26777658  0.63226101    -0.19900
C1018       C  0.69832175  0.26675913  0.64942411    -0.12200
C1019       C  0.71696853  0.25808724  0.64901881     0.13500
C1020       C  0.72440932  0.25116138  0.63128986    -0.22600
C1021       C  0.68197097  0.26086801  0.59674288    -0.05700
H1022       H  0.67287939  0.27406246  0.63275199     0.15100
C1023       C  0.72867221  0.25537070  0.66734274    -0.15800
H1024       H  0.73871642  0.24454209  0.63080240     0.09400
H1025       H  0.71139092  0.19036121  0.57426000     0.07200
H1026       H  0.73549337  0.18715325  0.58415919     0.08400
H1027       H  0.73189816  0.18951920  0.55835124     0.07500
H1028       H  0.74199702  0.28053354  0.59920089     0.02400
H1029       H  0.71878384  0.28548676  0.58800104     0.02800
H1030       H  0.74059882  0.28585495  0.57364253     0.06300
H1031       H  0.66750622  0.26739660  0.59980771     0.05300
H1032       H  0.67965901  0.24578224  0.59141784    -0.00400
H1033       H  0.68895568  0.26952340  0.58507167     0.01000
H1034       H  0.74243734  0.24739301  0.66449403     0.04700
H1035       H  0.72009170  0.24687540  0.67808096     0.06600
H1036       H  0.73251661  0.26970197  0.67369382     0.07500
C1037       C  0.62622665  0.23320313  0.70818653    -0.22100
C1038       C  0.61004956  0.24518509  0.71140544     0.09900
C1039       C  0.61167604  0.26543093  0.70851358     0.10300
C1040       C  0.62949719  0.27330104  0.70244704    -0.17000
C1041       C  0.64584345  0.26142946  0.69936541    -0.27500
C1042       C  0.64421585  0.24106109  0.70245957     0.18600
C1043       C  0.59188366  0.23655203  0.71916681     0.12600
C1044       C  0.59457039  0.27872135  0.71187825    -0.11800
H1045       H  0.63065961  0.28883605  0.69995912     0.12800
C1046       C  0.66119382  0.22725778  0.70072072    -0.22600
H1047       H  0.62494989  0.21767827  0.71072482     0.08500
C1048       C  0.57713169  0.22939420  0.70684187     0.04800
C1049       C  0.55968315  0.22255931  0.71504011    -0.19900
C1050       C  0.55683557  0.22245317  0.73528068    -0.12200
C1051       C  0.57166591  0.22971956  0.74758357     0.13500
C1052       C  0.58904646  0.23652954  0.73934122    -0.22600
C1053       C  0.57988179  0.22889273  0.68511569    -0.05700
H1054       H  0.54835246  0.21690798  0.70564351     0.15100
C1055       C  0.56946228  0.23125148  0.76934787    -0.15800
H1056       H  0.60035491  0.24228448  0.74871546     0.09400
H1057       H  0.65848261  0.21680678  0.68869152     0.07200
H1058       H  0.66281526  0.21900251  0.71450141     0.08400
H1059       H  0.67522478  0.23470095  0.69805801     0.07500
H1060       H  0.58974255  0.27768535  0.72725616     0.02400
H1061       H  0.58237706  0.27445370  0.70219736     0.02800
H1062       H  0.59827619  0.29415634  0.70883424     0.06300
H1063       H  0.56692568  0.22284176  0.67759321     0.05300
H1064       H  0.59260563  0.21963358  0.68144015    -0.00400
H1065       H  0.58243207  0.24384508  0.67957257     0.01000
H1066       H  0.58054699  0.22197728  0.77653478     0.04700
H1067       H  0.55489237  0.22682776  0.77460058     0.02800
H1068       H  0.57173810  0.24659729  0.77391644     0.07500
C1069       C  0.73732242  0.71474710  0.33157767    -0.22100
C1070       C  0.72674501  0.71636201  0.34891530     0.09900
C1071       C  0.70690801  0.71119045  0.34931148     0.10300
C1072       C  0.69814316  0.70405099  0.33235106    -0.17000
C1073       C  0.70873219  0.70212377  0.31496821    -0.27500
C1074       C  0.72852320  0.70792506  0.31447757     0.18600
C1075       C  0.73676320  0.72316888  0.36666000     0.12600
C1076       C  0.69507642  0.71306430  0.36768210    -0.11800
H1077       H  0.68298931  0.69968446  0.33270608     0.12800
C1078       C  0.74066358  0.70773320  0.29619393    -0.22600
H1079       H  0.75252014  0.71897941  0.33137044     0.08500
C1080       C  0.74590630  0.70992706  0.37933427     0.04800
C1081       C  0.75420195  0.71683075  0.39663534    -0.19900
C1082       C  0.75373972  0.73669443  0.40139923    -0.12200
C1083       C  0.74464377  0.74999960  0.38856727     0.13500
C1084       C  0.73639191  0.74302622  0.37125360    -0.22600
C1085       C  0.74681100  0.68853213  0.37458740    -0.05700
H1086       H  0.76117175  0.70668752  0.40648262     0.15100
C1087       C  0.74249007  0.77140239  0.39294992    -0.15800
H1088       H  0.72916402  0.75307598  0.36148716     0.09400
H1089       H  0.75288230  0.69731106  0.29791438     0.07200
H1090       H  0.74672432  0.72249619  0.29363848     0.08400
H1091       H  0.73231696  0.70373413  0.28302461     0.07500
H1092       H  0.69492070  0.72848430  0.37253023     0.02400
H1093       H  0.70151781  0.70392243  0.37931222     0.02800
H1094       H  0.67978610  0.70833128  0.36547691     0.06300
H1095       H  0.75451817  0.68018195  0.38605383     0.05300
H1096       H  0.75468550  0.68636751  0.36064172    -0.00400
H1097       H  0.73187050  0.68256073  0.37321565     0.01000
H1098       H  0.75029663  0.78000815  0.38172838     0.04700
H1099       H  0.74811425  0.77560874  0.40742092     0.06600
H1100       H  0.72683861  0.77539164  0.39262900     0.07500
C1101       C  0.61908424  0.71130950  0.27142120    -0.22100
C1102       C  0.61985710  0.72205115  0.25412633     0.09900
C1103       C  0.63749532  0.72340983  0.24371853     0.10300
C1104       C  0.65408718  0.71399144  0.25092541    -0.17000
C1105       C  0.65335360  0.70329170  0.26826729    -0.27500
C1106       C  0.63561843  0.70180335  0.27861263     0.18600
C1107       C  0.60190400  0.73154040  0.24706395     0.12600
C1108       C  0.63872780  0.73467920  0.22498546    -0.11800
H1109       H  0.66773650  0.71505002  0.24308095     0.12800
C1110       C  0.63351585  0.69005114  0.29700337    -0.22600
H1111       H  0.60543198  0.71020964  0.27926228     0.08500
C1112       C  0.58802560  0.72115923  0.23609721     0.04800
C1113       C  0.57104533  0.73065483  0.22996657    -0.19900
C1114       C  0.56772729  0.75030808  0.23447173    -0.12200
C1115       C  0.58157502  0.76063903  0.24565747     0.13500
C1116       C  0.59856951  0.75110421  0.25177133    -0.22600
C1117       C  0.59118492  0.70008967  0.23088843    -0.05700
H1118       H  0.56032507  0.72273762  0.22153263     0.15100
C1119       C  0.57811478  0.78137334  0.25192634    -0.15800
H1120       H  0.60924246  0.75885015  0.26042343     0.09400
H1121       H  0.62224395  0.67867191  0.29485144     0.07200
H1122       H  0.62892403  0.69974025  0.30910300     0.08400
H1123       H  0.64714025  0.68264043  0.30136793     0.07500
H1124       H  0.63488704  0.75014750  0.22765693     0.02400
H1125       H  0.62847129  0.72842634  0.21419263     0.02800
H1126       H  0.65359653  0.73419666  0.21866134     0.06300
H1127       H  0.57898150  0.69418448  0.22210393     0.05300
H1128       H  0.59239139  0.69125988  0.24434542    -0.00400
H1129       H  0.60478003  0.69855666  0.22228891     0.01000
H1130       H  0.56422212  0.78236123  0.26012590     0.04700
H1131       H  0.57747505  0.79102987  0.23904257     0.06600
H1132       H  0.58994584  0.78679332  0.26150204     0.07500
C1133       C  0.70343024  0.61701455  0.25499067    -0.22100
C1134       C  0.72059909  0.61901902  0.24414673     0.09900
C1135       C  0.72954993  0.63743683  0.24257053     0.10300
C1136       C  0.72121271  0.65346564  0.25213090    -0.17000
C1137       C  0.70399944  0.65148416  0.26292454    -0.27500
C1138       C  0.69497067  0.63307510  0.26438939     0.18600
C1139       C  0.72866164  0.60161782  0.23428450     0.12600
C1140       C  0.74776333  0.64017135  0.23069423    -0.11800
H1141       H  0.72803917  0.66765564  0.25107756     0.12800
C1142       C  0.67668225  0.63029399  0.27616480    -0.22600
H1143       H  0.69665203  0.60280734  0.25607554     0.08500
C1144       C  0.74204019  0.58921044  0.24363751     0.04800
C1145       C  0.74841372  0.57229750  0.23406029    -0.19900
C1146       C  0.74179445  0.56758180  0.21531023    -0.12200
C1147       C  0.72837117  0.58008839  0.20596948     0.13500
C1148       C  0.72200611  0.59698327  0.21559798    -0.22600
C1149       C  0.74933586  0.59368933  0.26380903    -0.05700
H1150       H  0.75857820  0.56264576  0.24126533     0.15100
C1151       C  0.71993967  0.57525792  0.18633095    -0.15800
H1152       H  0.71153274  0.60650906  0.20866704     0.09400
H1153       H  0.67927530  0.63484806  0.29144579     0.07200
H1154       H  0.66470786  0.63913935  0.26995465     0.08400
H1155       H  0.67191757  0.61484399  0.27623805     0.07500
H1156       H  0.74494300  0.63599050  0.21535091     0.02400
H1157       H  0.75961763  0.63094208  0.23656729     0.02800
H1158       H  0.75278015  0.65554152  0.23090348     0.06300
H1159       H  0.75971034  0.58245908  0.26901890     0.05300
H1160       H  0.73690946  0.59425585  0.27412149    -0.00400
H1161       H  0.75691678  0.60794934  0.26389984     0.01000
H1162       H  0.71298989  0.56067386  0.18677082     0.04700
H1163       H  0.73152676  0.57540693  0.17511860     0.06600
H1164       H  0.70871787  0.58598792  0.18186454     0.07500
C1165       C  0.35425009  0.70786600  0.70726823    -0.22100
C1166       C  0.35264571  0.71743159  0.72520918     0.09900
C1167       C  0.33451351  0.71817994  0.73479479     0.10300
C1168       C  0.31823021  0.70954338  0.72600441    -0.17000
C1169       C  0.31977289  0.70018741  0.70790984    -0.27500
C1170       C  0.33808264  0.69901358  0.69857243     0.18600
C1171       C  0.37018403  0.72680555  0.73341681     0.12600
C1172       C  0.33244383  0.72789595  0.75433270    -0.11800
H1173       H  0.30420711  0.71014286  0.73321022     0.12800
C1174       C  0.34121705  0.68817818  0.67973927    -0.22600
H1175       H  0.36827885  0.70719830  0.70006563     0.08500
C1176       C  0.38492041  0.71581456  0.74248166     0.04800
C1177       C  0.40201251  0.72516015  0.74854152    -0.19900
C1178       C  0.40462658  0.74524736  0.74585828    -0.12200
C1179       C  0.38962106  0.75632252  0.73714079     0.13500
C1180       C  0.37256651  0.74690539  0.73102059    -0.22600
C1181       C  0.38260872  0.69425037  0.74567680    -0.05700
H1182       H  0.41349503  0.71671481  0.75527741     0.15100
C1183       C  0.39184218  0.77779392  0.73326955    -0.15800
H1184       H  0.36117300  0.75515934  0.72390710     0.09400
H1185       H  0.35235512  0.67668308  0.68193461     0.07200
H1186       H  0.34647793  0.69843615  0.66843028     0.08400
H1187       H  0.32788490  0.68098326  0.67424661     0.07500
H1188       H  0.33635499  0.74352503  0.75315668     0.02400
H1189       H  0.34223877  0.72075925  0.76499288     0.02800
H1190       H  0.31731548  0.72691408  0.75993881     0.06300
H1191       H  0.39536231  0.68793830  0.75330975     0.05300
H1192       H  0.38105555  0.68669213  0.73148771    -0.00400
H1193       H  0.36946723  0.69147157  0.75465982     0.01000
H1194       H  0.40517617  0.78045742  0.72454041     0.04700
H1195       H  0.39270435  0.78589971  0.74718095     0.06600
H1196       H  0.37926248  0.78371426  0.72505504     0.07500
C1197       C  0.25640551  0.59188803  0.75413841    -0.22100
C1198       C  0.24994814  0.59530843  0.73514050     0.09900
C1199       C  0.23838245  0.58127302  0.72563537     0.10300
C1200       C  0.23336178  0.56409936  0.73549809    -0.17000
C1201       C  0.23961400  0.56073837  0.75464384    -0.27500
C1202       C  0.25157617  0.57468257  0.76397539     0.18600
C1203       C  0.25635050  0.61329937  0.72521277     0.12600
C1204       C  0.23134906  0.58447095  0.70514625    -0.11800
H1205       H  0.22428692  0.55335821  0.72834547     0.12800
C1206       C  0.26022764  0.57163425  0.78388239    -0.22600
H1207       H  0.26561295  0.60258415  0.76120337     0.08500
C1208       C  0.24571208  0.63080003  0.72666414     0.04800
C1209       C  0.25282190  0.64761212  0.71746520    -0.19900
C1210       C  0.27045886  0.64728420  0.70716631    -0.12200
C1211       C  0.28103995  0.62967819  0.70566151     0.13500
C1212       C  0.27382026  0.61290420  0.71472754    -0.22600
C1213       C  0.22709065  0.63175546  0.73818448    -0.05700
H1214       H  0.24485369  0.66117529  0.71868064     0.15100
C1215       C  0.29988422  0.62799710  0.69452986    -0.15800
H1216       H  0.28193833  0.59940739  0.71371130     0.09400
H1217       H  0.25460848  0.58291027  0.79401131     0.07200
H1218       H  0.27630506  0.57297703  0.78298576     0.08400
H1219       H  0.25704443  0.55711318  0.79006378     0.07500
H1220       H  0.24398723  0.58616193  0.69522404     0.02400
H1221       H  0.22228575  0.59782240  0.70450784     0.02800
H1222       H  0.22243351  0.57205917  0.69987303     0.06300
H1223       H  0.22064294  0.64657553  0.73792311     0.05300
H1224       H  0.22998333  0.62782126  0.75357122    -0.00400
H1225       H  0.21630211  0.62143526  0.73203026     0.01000
H1226       H  0.31173610  0.62375047  0.70462941     0.04700
H1227       H  0.30418832  0.64167705  0.68717409     0.06600
H1228       H  0.29841077  0.61662169  0.68313979     0.07500
C1229       C  0.26901081  0.70992807  0.62272011    -0.22100
C1230       C  0.24941376  0.71548389  0.62364829     0.09900
C1231       C  0.23881536  0.71247309  0.64097686     0.10300
C1232       C  0.24835066  0.70479092  0.65731671    -0.17000
C1233       C  0.26808847  0.69954258  0.65656262    -0.27500
C1234       C  0.27844905  0.70175431  0.63888113     0.18600
C1235       C  0.24016853  0.72354718  0.60592181     0.12600
C1236       C  0.21734090  0.71673503  0.64203049    -0.11800
H1237       H  0.24032111  0.70266802  0.67072902     0.12800
C1238       C  0.29909559  0.69466544  0.63664444    -0.22600
H1239       H  0.27686543  0.71177669  0.60916208     0.08500
C1240       C  0.23831606  0.74379685  0.60295255     0.04800
C1241       C  0.23014569  0.75063877  0.58551734    -0.19900
C1242       C  0.22437865  0.73772097  0.57076964    -0.12200
C1243       C  0.22612288  0.71742305  0.57385653     0.13500
C1244       C  0.23395610  0.71061386  0.59143776    -0.22600
C1245       C  0.24553425  0.75815912  0.61787521    -0.05700
H1246       H  0.22876696  0.76617790  0.58313299     0.15100
C1247       C  0.21922107  0.70285846  0.55897615    -0.15800
H1248       H  0.23542836  0.69508930  0.59387350     0.09400
H1249       H  0.30435365  0.69623432  0.62144213     0.07200
H1250       H  0.29995668  0.67901949  0.64058828     0.08400
H1251       H  0.30902612  0.70316433  0.64607158     0.07500
H1252       H  0.20953085  0.70783329  0.63104146     0.02400
H1253       H  0.21455425  0.73234624  0.63911070     0.02800
H1254       H  0.21124066  0.71322944  0.65657924     0.06300
H1255       H  0.24323405  0.77342747  0.61310751     0.05300
H1256       H  0.26135094  0.75598105  0.62027726    -0.00400
H1257       H  0.23775815  0.75611535  0.63185530     0.01000
H1258       H  0.22047091  0.68768723  0.56440313     0.04700
H1259       H  0.22812196  0.70391448  0.54557617     0.06600
H1260       H  0.20370890  0.70560395  0.55543632     0.07500
C1261       C  0.26618218  0.34796584  0.72067112    -0.22100
C1262       C  0.24707569  0.34879487  0.72771953     0.09900
C1263       C  0.23463580  0.33266470  0.72522303     0.10300
C1264       C  0.24173723  0.31583984  0.71601774    -0.17000
C1265       C  0.26097093  0.31483072  0.70916077    -0.27500
C1266       C  0.27326524  0.33127957  0.71122459     0.18600
C1267       C  0.24037293  0.36680315  0.73753604     0.12600
C1268       C  0.21392444  0.33321779  0.73236541    -0.11800
H1269       H  0.23230165  0.30330962  0.71432672     0.12800
C1270       C  0.29366174  0.33206713  0.70316405    -0.22600
H1271       H  0.27557862  0.36053188  0.72238467     0.08500
C1272       C  0.24309209  0.36969507  0.75766438     0.04800
C1273       C  0.23674956  0.38713319  0.76627512    -0.19900
C1274       C  0.22792442  0.40179921  0.75514860    -0.12200
C1275       C  0.22472223  0.39860121  0.73502375     0.13500
C1276       C  0.23120724  0.38121681  0.72646456    -0.22600
C1277       C  0.25289368  0.35445571  0.76995463    -0.05700
H1278       H  0.23917890  0.38956175  0.78166435     0.15100
C1279       C  0.21395047  0.41276644  0.72221722    -0.15800
H1280       H  0.22891824  0.37878153  0.71104662     0.09400
H1281       H  0.30417134  0.33393745  0.71527491     0.07200
H1282       H  0.29499016  0.34466870  0.69314706     0.08400
H1283       H  0.29774862  0.31890864  0.69479955     0.07500
H1284       H  0.20594092  0.34516101  0.72500181     0.02400
H1285       H  0.21367426  0.33575342  0.74831278     0.02800
H1286       H  0.20618400  0.31935130  0.72933656     0.06300
H1287       H  0.25389944  0.35901110  0.78542692     0.05300
H1288       H  0.26786465  0.35182819  0.76447578    -0.00400
H1289       H  0.24451953  0.34065536  0.76929135     0.01000
H1290       H  0.22391167  0.41840167  0.71081483     0.04700
H1291       H  0.20770448  0.42522933  0.73029184     0.06600
H1292       H  0.20160697  0.40517891  0.71506904     0.07500
C1293       C  0.32471843  0.22997869  0.71872152    -0.22100
C1294       C  0.34224186  0.24044805  0.71912598     0.09900
C1295       C  0.34226529  0.26029786  0.71384062     0.10300
C1296       C  0.32486020  0.26912758  0.70788911    -0.17000
C1297       C  0.30734797  0.25864480  0.70717636    -0.27500
C1298       C  0.30719321  0.23889123  0.71310470     0.18600
C1299       C  0.36046056  0.23048699  0.72515072     0.12600
C1300       C  0.36063957  0.27222410  0.71462662    -0.11800
H1301       H  0.32495869  0.28426759  0.70345469     0.12800
C1302       C  0.28881292  0.22698689  0.71430245    -0.22600
H1303       H  0.32468603  0.21479717  0.72301947     0.08500
C1304       C  0.36449318  0.22636801  0.74485196     0.04800
C1305       C  0.38242999  0.21790136  0.74986174    -0.19900
C1306       C  0.39649581  0.21364152  0.73564077    -0.12200
C1307       C  0.39215895  0.21724833  0.71582525     0.13500
C1308       C  0.37424700  0.22570992  0.71088855    -0.22600
C1309       C  0.35010508  0.23141811  0.76060635    -0.05700
H1310       H  0.38571205  0.21506459  0.76501448     0.15100
C1311       C  0.40570646  0.21187843  0.69941190    -0.15800
H1312       H  0.37099614  0.22864989  0.69574206     0.09400
H1313       H  0.28714319  0.22117395  0.72927994     0.07200
H1314       H  0.28967629  0.21460357  0.70394746     0.08400
H1315       H  0.27556566  0.23553907  0.71105125     0.07500
H1316       H  0.37159885  0.26615209  0.70443177     0.02400
H1317       H  0.36660232  0.27203200  0.72962867     0.02800
H1318       H  0.35798692  0.28762013  0.71049337     0.06300
H1319       H  0.35572993  0.22767916  0.77527124     0.05300
H1320       H  0.33636537  0.22325497  0.75830968    -0.00400
H1321       H  0.34700820  0.24727829  0.76030652     0.01000
H1322       H  0.39798761  0.20218144  0.68904062     0.04700
H1323       H  0.41885872  0.20399400  0.70427410     0.06600
H1324       H  0.41030475  0.22525884  0.69161863     0.07500
C1325       C  0.21343873  0.25022109  0.59641043    -0.22100
C1326       C  0.23303904  0.24660650  0.60056312     0.09900
C1327       C  0.24475413  0.23701883  0.58669748     0.10300
C1328       C  0.23658241  0.23137957  0.56884286    -0.17000
C1329       C  0.21691798  0.23498720  0.56458609    -0.27500
C1330       C  0.20524572  0.24480680  0.57851484     0.18600
C1331       C  0.24103659  0.25334009  0.61942335     0.12600
C1332       C  0.26585754  0.23279742  0.59075962    -0.11800
H1333       H  0.24554131  0.22388519  0.55822750     0.12800
C1334       C  0.18445022  0.25073126  0.57485957    -0.22600
H1335       H  0.20457022  0.25776337  0.60707882     0.08500
C1336       C  0.24695134  0.27279882  0.62222208     0.04800
C1337       C  0.25451588  0.27848404  0.64032421    -0.19900
C1338       C  0.25589514  0.26526928  0.65587681    -0.12200
C1339       C  0.24910938  0.24594247  0.65321212     0.13500
C1340       C  0.24219781  0.24015058  0.63488644    -0.22600
C1341       C  0.24541176  0.28749114  0.60604696    -0.05700
H1342       H  0.25959331  0.29329343  0.64228816     0.15100
C1343       C  0.24806173  0.23126811  0.66946198    -0.15800
H1344       H  0.23720319  0.22532712  0.63276081     0.09400
H1345       H  0.18284700  0.26659782  0.57752823     0.07200
H1346       H  0.17469224  0.24276066  0.58497158     0.08400
H1347       H  0.17959095  0.24810850  0.55976471     0.07500
H1348       H  0.26710284  0.22329739  0.60374978     0.02400
H1349       H  0.27375635  0.24662665  0.59350243     0.02800
H1350       H  0.27297760  0.22527672  0.57833794     0.06300
H1351       H  0.25083072  0.30202795  0.61060444     0.05300
H1352       H  0.22997786  0.28909644  0.60159306    -0.00400
H1353       H  0.25413289  0.28257928  0.59335681     0.01000
H1354       H  0.23300955  0.22548734  0.67052716     0.04700
H1355       H  0.25162671  0.23752232  0.68385734     0.06600
H1356       H  0.25814188  0.21902325  0.66636690     0.07500
C1357       C  0.71986953  0.33972107  0.23435759    -0.22100
C1358       C  0.72261311  0.35614592  0.24612254     0.09900
C1359       C  0.71757644  0.35541380  0.26599039     0.10300
C1360       C  0.70973048  0.33820761  0.27364760    -0.17000
C1361       C  0.70690601  0.32169439  0.26190280    -0.27500
C1362       C  0.71234939  0.32237213  0.24202839     0.18600
C1363       C  0.73062660  0.37404496  0.23726594     0.12600
C1364       C  0.72060744  0.37274060  0.27909158    -0.11800
H1365       H  0.70562839  0.33765984  0.28887051     0.12800
C1366       C  0.71115253  0.30502027  0.22862869    -0.22600
H1367       H  0.72392013  0.34036942  0.21912092     0.08500
C1368       C  0.75075098  0.37632913  0.23390166     0.04800
C1369       C  0.75757543  0.39361299  0.22538702    -0.19900
C1370       C  0.74470957  0.40868373  0.22050331    -0.12200
C1371       C  0.72452703  0.40624366  0.22368586     0.13500
C1372       C  0.71773935  0.38890935  0.23203190    -0.22600
C1373       C  0.76496426  0.36064622  0.23955053    -0.05700
H1374       H  0.77301567  0.39550793  0.22278396     0.15100
C1375       C  0.71002885  0.42155067  0.21769164    -0.15800
H1376       H  0.70229112  0.38688623  0.23449506     0.09400
H1377       H  0.72569716  0.30221679  0.22216299     0.07200
H1378       H  0.70068487  0.30810428  0.21673842     0.08400
H1379       H  0.70664005  0.29147380  0.23607020     0.07500
H1380       H  0.71186700  0.38523859  0.27380414     0.02400
H1381       H  0.73623255  0.37683793  0.27915713     0.02800
H1382       H  0.71614394  0.36960701  0.29430249     0.06300
H1383       H  0.78019013  0.36487518  0.23616688     0.05300
H1384       H  0.76163363  0.34703274  0.23150456    -0.00400
H1385       H  0.76390589  0.35783230  0.25541918     0.01000
H1386       H  0.69482165  0.41670760  0.22023317     0.04700
H1387       H  0.71169009  0.42475340  0.20194884     0.06600
H1388       H  0.71231224  0.43505330  0.22622615     0.07500
C1389       C  0.72189018  0.24526025  0.33303849    -0.22100
C1390       C  0.72335693  0.25750932  0.34925680     0.09900
C1391       C  0.71694616  0.27695913  0.34806637     0.10300
C1392       C  0.70913420  0.28377675  0.33055309    -0.17000
C1393       C  0.70762337  0.27157562  0.31424350    -0.27500
C1394       C  0.71426317  0.25209410  0.31541729     0.18600
C1395       C  0.73223389  0.24995237  0.36724891     0.12600
C1396       C  0.71829034  0.29045345  0.36530912    -0.11800
H1397       H  0.70399987  0.29866652  0.32960104     0.12800
C1398       C  0.71418449  0.23834566  0.29831116    -0.22600
H1399       H  0.72705619  0.23038275  0.33405149     0.08500
C1400       C  0.72092263  0.24096991  0.38177544     0.04800
C1401       C  0.72979867  0.23543939  0.39925862    -0.19900
C1402       C  0.74975337  0.23852659  0.40241255    -0.12200
C1403       C  0.76110415  0.24742093  0.38767404     0.13500
C1404       C  0.75217149  0.25282145  0.37018185    -0.22600
C1405       C  0.69953461  0.23726804  0.37878888    -0.05700
H1406       H  0.72114802  0.22850741  0.41047782     0.15100
C1407       C  0.78233065  0.25239882  0.39007670    -0.15800
H1408       H  0.76069664  0.25990644  0.35894996     0.09400
H1409       H  0.70436459  0.22589605  0.30142084     0.07200
H1410       H  0.72912780  0.23271628  0.29584667     0.08400
H1411       H  0.70947573  0.24533850  0.28460598     0.07500
H1412       H  0.73370765  0.29201668  0.36983433     0.02400
H1413       H  0.70971413  0.28447257  0.37761901     0.02800
H1414       H  0.71255914  0.30517091  0.36189221     0.06300
H1415       H  0.69283397  0.23009381  0.39162334     0.05300
H1416       H  0.69743499  0.22764282  0.36597576    -0.00400
H1417       H  0.69184391  0.25124083  0.37626366     0.01000
H1418       H  0.79109487  0.24393886  0.37944709     0.04700
H1419       H  0.78794821  0.24954110  0.40486046     0.06600
H1420       H  0.78450887  0.26816250  0.38724404     0.07500
C1421       C  0.63549840  0.24463879  0.25151307    -0.22100
C1422       C  0.61878289  0.25628808  0.25129857     0.09900
C1423       C  0.61982546  0.27579836  0.25762312     0.10300
C1424       C  0.63759056  0.28314075  0.26444616    -0.17000
C1425       C  0.65427711  0.27139446  0.26503641    -0.27500
C1426       C  0.65332481  0.25199852  0.25814654     0.18600
C1427       C  0.60028686  0.24766146  0.24453108     0.12600
C1428       C  0.60226509  0.28888861  0.25693137    -0.11800
H1429       H  0.63845498  0.29806691  0.26951144     0.12800
C1430       C  0.67112697  0.23922335  0.25714615    -0.22600
H1431       H  0.63454706  0.22971687  0.24644584     0.08500
C1432       C  0.59666485  0.24435011  0.22461995     0.04800
C1433       C  0.57903118  0.23578212  0.21899486    -0.19900
C1434       C  0.56487999  0.23067962  0.23281019    -0.12200
C1435       C  0.56853896  0.23406899  0.25280380     0.13500
C1436       C  0.58628277  0.24245871  0.25838793    -0.22600
C1437       C  0.61130206  0.25005560  0.20933252    -0.05700
H1438       H  0.57620025  0.23316670  0.20370471     0.15100
C1439       C  0.55428326  0.22817906  0.26840196    -0.15800
H1440       H  0.58933965  0.24492124  0.27366363     0.09400
H1441       H  0.66794720  0.22506075  0.25001522     0.07200
H1442       H  0.67653408  0.23604028  0.27197190     0.08400
H1443       H  0.68269990  0.24660402  0.24861958     0.07500
H1444       H  0.59061766  0.28301394  0.26644729     0.02400
H1445       H  0.59679661  0.28980378  0.24176744     0.02800
H1446       H  0.60574071  0.30386060  0.26195644     0.06300
H1447       H  0.60595282  0.24684698  0.19443081     0.05300
H1448       H  0.62504759  0.24188709  0.21152261    -0.00400
H1449       H  0.61429764  0.26590845  0.21032700     0.01000
H1450       H  0.56035462  0.23042057  0.28320441     0.04700
H1451       H  0.55059343  0.21251953  0.26686112     0.06600
H1452       H  0.54090208  0.23709056  0.26738827     0.07500
C1453       C  0.25435556  0.73379737  0.34209005    -0.22100
C1454       C  0.25376907  0.72205321  0.35872491     0.09900
C1455       C  0.26117030  0.70291494  0.35788915     0.10300
C1456       C  0.26881977  0.69584989  0.34030843    -0.17000
C1457       C  0.26933825  0.70752415  0.32356946    -0.27500
C1458       C  0.26195376  0.72676466  0.32446084     0.18600
C1459       C  0.24437769  0.72965146  0.37660446     0.12600
C1460       C  0.26115502  0.69004664  0.37561455    -0.11800
H1461       H  0.27464500  0.68119818  0.33964861     0.12800
C1462       C  0.26125745  0.74006338  0.30704999    -0.22600
H1463       H  0.24848687  0.74843314  0.34277738     0.08500
C1464       C  0.25450234  0.74142110  0.39002539     0.04800
C1465       C  0.24509845  0.74741702  0.40717215    -0.19900
C1466       C  0.22577105  0.74203645  0.41108865    -0.12200
C1467       C  0.21562321  0.73030546  0.39751911     0.13500
C1468       C  0.22505039  0.72441158  0.38039078    -0.22600
C1469       C  0.27524737  0.74742437  0.38634080    -0.05700
H1470       H  0.25285194  0.75637361  0.41759092     0.15100
C1471       C  0.19523772  0.72294510  0.40088399    -0.15800
H1472       H  0.21739691  0.71525157  0.37006508     0.09400
H1473       H  0.27037537  0.75310869  0.30985053     0.07200
H1474       H  0.24602249  0.74479933  0.30453929     0.08400
H1475       H  0.26640444  0.73304562  0.29347992     0.07500
H1476       H  0.24600852  0.68767025  0.38068929     0.02400
H1477       H  0.26966622  0.69706325  0.38741605     0.02800
H1478       H  0.26773324  0.67560223  0.37252694     0.06300
H1479       H  0.28104711  0.75656717  0.39834556     0.05300
H1480       H  0.27612467  0.75596220  0.37266860    -0.00400
H1481       H  0.28456957  0.73429601  0.38499894     0.01000
H1482       H  0.18551201  0.72855014  0.38928928     0.04700
H1483       H  0.18913688  0.72724974  0.41514776     0.06600
H1484       H  0.19521389  0.70678711  0.40032470     0.07500
C1485       C  0.35658238  0.70623578  0.26374605    -0.22100
C1486       C  0.35607859  0.72575164  0.25789115     0.09900
C1487       C  0.33893604  0.73671222  0.26052876     0.10300
C1488       C  0.32247690  0.72773252  0.26863448    -0.17000
C1489       C  0.32287777  0.70811462  0.27437640    -0.27500
C1490       C  0.34035747  0.69736600  0.27235922     0.18600
C1491       C  0.37395521  0.73450662  0.24963780     0.12600
C1492       C  0.33812030  0.75789839  0.25500241    -0.11800
H1493       H  0.30915884  0.73600840  0.27037290     0.12800
C1494       C  0.34276570  0.67686662  0.27980709    -0.22600
H1495       H  0.36993416  0.69800061  0.26201491     0.08500
C1496       C  0.38959028  0.74005353  0.26168976     0.04800
C1497       C  0.40662218  0.74744004  0.25321373    -0.19900
C1498       C  0.40829972  0.74961526  0.23298074    -0.12200
C1499       C  0.39256733  0.74406851  0.22089123     0.13500
C1500       C  0.37553883  0.73667128  0.22942963    -0.22600
C1501       C  0.38817100  0.73842192  0.28349866    -0.05700
H1502       H  0.41864470  0.75176598  0.26245129     0.15100
C1503       C  0.39343300  0.74492400  0.19899760    -0.15800
H1504       H  0.36352946  0.73219955  0.22023519     0.09400
H1505       H  0.35532954  0.67631314  0.28993449     0.07200
H1506       H  0.34561895  0.66688573  0.26741622     0.08400
H1507       H  0.32994884  0.67148414  0.28794763     0.07500
H1508       H  0.34087760  0.75952769  0.23917837     0.02400
H1509       H  0.34933317  0.76612217  0.26322648     0.02800
H1510       H  0.32369588  0.76439757  0.25831331     0.06300
H1511       H  0.40154892  0.74380294  0.29078012     0.05300
H1512       H  0.38602862  0.72298772  0.28773342    -0.00400
H1513       H  0.37568186  0.74719063  0.28882805     0.01000
H1514       H  0.39058085  0.73021161  0.19292391     0.04700
H1515       H  0.40773166  0.74970561  0.19334829     0.06600
H1516       H  0.38212546  0.75508965  0.19357212     0.07500
C1517       C  0.26209102  0.62212082  0.27364135    -0.22100
C1518       C  0.25610776  0.62245970  0.25417268     0.09900
C1519       C  0.25848175  0.63963412  0.24318905     0.10300
C1520       C  0.26637015  0.65628045  0.25213629    -0.17000
C1521       C  0.27202672  0.65607480  0.27178743    -0.27500
C1522       C  0.27032974  0.63855638  0.28251357     0.18600
C1523       C  0.24694763  0.60469629  0.24594753     0.12600
C1524       C  0.25283378  0.64030620  0.22204736    -0.11800
H1525       H  0.26794971  0.66959180  0.24383272     0.12800
C1526       C  0.27758663  0.63636972  0.30309115    -0.22600
H1527       H  0.26046482  0.60881144  0.28195456     0.08500
C1528       C  0.25804858  0.58817190  0.24092070     0.04800
C1529       C  0.24851570  0.57099574  0.23524218    -0.19900
C1530       C  0.22812005  0.56997284  0.23426634    -0.12200
C1531       C  0.21701874  0.58675589  0.23895093     0.13500
C1532       C  0.22663020  0.60389507  0.24461385    -0.22600
C1533       C  0.27994593  0.58875074  0.24134178    -0.05700
H1534       H  0.25706062  0.55831070  0.23136637     0.15100
C1535       C  0.19508954  0.58705000  0.23914424    -0.15800
H1536       H  0.21816085  0.61659222  0.24865573     0.09400
H1537       H  0.28806732  0.62408994  0.30376549     0.07200
H1538       H  0.26515261  0.63316661  0.31289855     0.08400
H1539       H  0.28526088  0.64941409  0.30861288     0.07500
H1540       H  0.23704072  0.63734621  0.22049110     0.02400
H1541       H  0.26116782  0.62915422  0.21382406     0.02800
H1542       H  0.25592127  0.65475793  0.21550643     0.06300
H1543       H  0.28640051  0.57472369  0.23653327     0.05300
H1544       H  0.28509130  0.59176479  0.25633739    -0.00400
H1545       H  0.28526405  0.60037795  0.23146769     0.01000
H1546       H  0.18989750  0.59186852  0.25367643     0.04700
H1547       H  0.18845253  0.57266078  0.23635579     0.06600
H1548       H  0.18975754  0.59747536  0.22803097     0.07500
C1549       C  0.71052335  0.61176440  0.69272230    -0.22100
C1550       C  0.71587379  0.61222197  0.71236596     0.09900
C1551       C  0.71278544  0.62928745  0.72335231     0.10300
C1552       C  0.70427207  0.64556121  0.71441512    -0.17000
C1553       C  0.69878380  0.64514643  0.69473003    -0.27500
C1554       C  0.70177104  0.62788148  0.68379010     0.18600
C1555       C  0.72413993  0.59438551  0.72120281     0.12600
C1556       C  0.71841715  0.63025557  0.74448961    -0.11800
H1557       H  0.70204654  0.65876469  0.72277615     0.12800
C1558       C  0.69531381  0.62555530  0.66295423    -0.22600
H1559       H  0.71278887  0.59852760  0.68440996     0.08500
C1560       C  0.71204939  0.57908220  0.72756548     0.04800
C1561       C  0.72050390  0.56212590  0.73516529    -0.19900
C1562       C  0.74079755  0.56008183  0.73654813    -0.12200
C1563       C  0.75291391  0.57539233  0.72983314     0.13500
C1564       C  0.74437391  0.59244999  0.72251276    -0.22600
C1565       C  0.69022579  0.58074898  0.72646603    -0.05700
H1566       H  0.71119290  0.55045917  0.74026100     0.15100
C1567       C  0.77479036  0.57402166  0.72912498    -0.15800
H1568       H  0.75358199  0.60415412  0.71729427     0.09400
H1569       H  0.68574846  0.61258631  0.66170702     0.07200
H1570       H  0.70824039  0.62340306  0.65349351     0.08400
H1571       H  0.68689667  0.63811880  0.65744626     0.07500
H1572       H  0.73430335  0.62779243  0.74599858     0.02400
H1573       H  0.71045838  0.61890156  0.75277709     0.02800
H1574       H  0.71490824  0.64464441  0.75098934     0.06300
H1575       H  0.68289923  0.56755809  0.73225432     0.05300
H1576       H  0.68565386  0.58266723  0.71110765    -0.00400
H1577       H  0.68528298  0.59347807  0.73512442     0.01000
H1578       H  0.77986640  0.57688692  0.71405399     0.04700
H1579       H  0.78043908  0.55952566  0.73319553     0.06600
H1580       H  0.78121220  0.58511165  0.73896854     0.07500
C1581       C  0.61465276  0.70888174  0.69281430    -0.22100
C1582       C  0.61580507  0.71604656  0.71185977     0.09900
C1583       C  0.63322239  0.71389385  0.72247202     0.10300
C1584       C  0.64925982  0.70480004  0.71365297    -0.17000
C1585       C  0.64817119  0.69761008  0.69455786    -0.27500
C1586       C  0.63052443  0.69943399  0.68408946     0.18600
C1587       C  0.59819800  0.72463210  0.72084650     0.12600
C1588       C  0.63477863  0.72101229  0.74314689    -0.11800
H1589       H  0.66275049  0.70331191  0.72166631     0.12800
C1590       C  0.62761723  0.69093958  0.66407056    -0.22600
H1591       H  0.60109667  0.71024462  0.68487970     0.08500
C1592       C  0.59442129  0.74479125  0.72018480     0.04800
C1593       C  0.57767612  0.75214130  0.72933346    -0.19900
C1594       C  0.56449114  0.73973042  0.73883509    -0.12200
C1595       C  0.56843510  0.71949967  0.73957537     0.13500
C1596       C  0.58515741  0.71223157  0.73039396    -0.22600
C1597       C  0.60788529  0.75844424  0.70957366    -0.05700
H1598       H  0.57461813  0.76760457  0.72868453     0.15100
C1599       C  0.55589533  0.70518987  0.75049578    -0.15800
H1600       H  0.58824684  0.69676358  0.73096301     0.09400
H1601       H  0.62475613  0.70283209  0.65353673     0.07200
H1602       H  0.61491443  0.68095190  0.66427056     0.08400
H1603       H  0.64025074  0.68239017  0.65887962     0.07500
H1604       H  0.62382674  0.71349504  0.75234043     0.02400
H1605       H  0.63213326  0.73693366  0.74373599     0.02800
H1606       H  0.64940219  0.71812974  0.74936075     0.06300
H1607       H  0.60272046  0.77374468  0.71035305     0.05300
H1608       H  0.60877239  0.75418612  0.69401299    -0.00400
H1609       H  0.62264420  0.75780611  0.71605347     0.01000
H1610       H  0.54947105  0.69460439  0.74011251     0.04700
H1611       H  0.54400926  0.71215654  0.75883094     0.06600
H1612       H  0.56498403  0.69714411  0.76113947     0.07500
C1613       C  0.70117499  0.70536659  0.60973545    -0.22100
C1614       C  0.72016185  0.71259646  0.61146870     0.09900
C1615       C  0.72952625  0.71230364  0.62971723     0.10300
C1616       C  0.71968621  0.70464370  0.64587638    -0.17000
C1617       C  0.70072377  0.69729635  0.64415948    -0.27500
C1618       C  0.69137227  0.69753903  0.62584804     0.18600
C1619       C  0.73032169  0.71954581  0.59378783     0.12600
C1620       C  0.75003484  0.71966443  0.63201154    -0.11800
H1621       H  0.72684779  0.70423871  0.65991286     0.12800
C1622       C  0.67144443  0.68882973  0.62307137    -0.22600
H1623       H  0.69418217  0.70550830  0.59560853     0.08500
C1624       C  0.73815159  0.70633121  0.58015192     0.04800
C1625       C  0.74776704  0.71350709  0.56364565    -0.19900
C1626       C  0.74992092  0.73358387  0.56056985    -0.12200
C1627       C  0.74194346  0.74683556  0.57421916     0.13500
C1628       C  0.73221752  0.73960452  0.59067791    -0.22600
C1629       C  0.73654533  0.68466867  0.58315547    -0.05700
H1630       H  0.75377496  0.70338419  0.55312645     0.15100
C1631       C  0.74285584  0.76853578  0.57116806    -0.15800
H1632       H  0.72599223  0.74961640  0.60117918     0.09400
H1633       H  0.67150988  0.67337140  0.62777754     0.07200
H1634       H  0.66682237  0.68930517  0.60760277     0.08400
H1635       H  0.66056282  0.69704657  0.63169619     0.07500
H1636       H  0.75069947  0.73534621  0.62820968     0.02400
H1637       H  0.75992393  0.71138230  0.62226514     0.02800
H1638       H  0.75532458  0.71798239  0.64717613     0.06300
H1639       H  0.74383951  0.67640603  0.57132237     0.05300
H1640       H  0.72101094  0.68028146  0.58344349    -0.00400
H1641       H  0.74347762  0.68059494  0.59715160     0.01000
H1642       H  0.73658886  0.77231581  0.55678160     0.04700
H1643       H  0.75811700  0.77364130  0.57197100     0.06600
H1644       H  0.73451451  0.77653370  0.58248349     0.07500
loop_ 
_geom_bond_atom_site_label_1 
_geom_bond_atom_site_label_2 
_geom_bond_distance 
_geom_bond_site_symmetry_2 
_ccdc_geom_bond_type 
C1            C2   1.405       .  A
C1            C6   1.404       .  A
C1         C1553   1.484       .  S
C2            C3   1.404       .  A
C2            H7   1.084       .  S
C3            C4   1.403       .  A
C3         C1585   1.481       .  S
C4            C5   1.402       .  A
C4            H8   1.084       .  S
C5            C6   1.402       .  A
C5         C1617   1.479       .  S
C6            H9   1.084       .  S
C10          C11   1.405       .  A
C10          C15   1.402       .  A
C10        C1457   1.482       .  S
C11          C12   1.406       .  A
C11          H16   1.084       .  S
C12          C13   1.403       .  A
C12        C1521   1.485       .  S
C13          C14   1.405       .  A
C13          H17   1.084       .  S
C14          C15   1.403       .  A
C14        C1489   1.482       .  S
C15          H18   1.084       .  S
C19          C20   1.403       .  A
C19          C24   1.402       .  A
C19        C1425   1.479       .  S
C20          C21   1.404       .  A
C20          H25   1.084       .  S
C21          C22   1.402       .  A
C21        C1361   1.481       .  S
C22          C23   1.401       .  A
C22          H26   1.084       .  S
C23          C24   1.401       .  A
C23        C1393   1.476       .  S
C24          H27   1.084       .  S
C28          C29   1.404       .  A
C28          C33   1.405       .  A
C28        C1297   1.485       .  S
C29          C30   1.404       .  A
C29          H34   1.084       .  S
C30          C31   1.404       .  A
C30        C1265   1.484       .  S
C31          C32   1.406       .  A
C31          H35   1.084       .  S
C32          C33   1.407       .  A
C32        C1338   1.489       .  S
C33          H36   1.084       .  S
C37          C38   1.401       .  A
C37          C42   1.403       .  A
C37        C1210   1.477       .  S
C38          C39   1.399       .  A
C38          H43   1.084       .  S
C39          C40   1.403       .  A
C39        C1169   1.476       .  S
C40          C41   1.405       .  A
C40          H44   1.083       .  S
C41          C42   1.406       .  A
C41        C1233   1.485       .  S
C42          H45   1.084       .  S
C46          C47   1.403       .  A
C46          C51   1.404       .  A
C46        C1073   1.481       .  S
C47          C48   1.401       .  A
C47          H52   1.084       .  S
C48          C49   1.401       .  A
C48        C1105   1.474       .  S
C49          C50   1.402       .  A
C49          H53   1.084       .  S
C50          C51   1.402       .  A
C50        C1137   1.477       .  S
C51          H54   1.084       .  S
C55          C56   1.403       .  A
C55          C60   1.407       .  A
C55        C1041   1.485       .  S
C56          C57   1.401       .  A
C56          H61   1.084       .  S
C57          C58   1.403       .  A
C57        C1018   1.479       .  S
C58          C59   1.403       .  A
C58          H62   1.084       .  S
C59          C60   1.404       .  A
C59         C977   1.481       .  S
C60          H63   1.084       .  S
N64          N65   1.323       .  A
N64          C68   1.345       .  A
N64         Cu72   2.071       .  S
N65          C66   1.347       .  A
N65         Cu71   2.092       .  S
C66          C67   1.387       .  A
C66          H69   1.082       .  S
C67          C68   1.383       .  A
C67         C913   1.484       .  S
C68          H70   1.082       .  S
Cu71         N74   2.092       .  S
Cu72         N82   2.071       .  S
Cu73         N75   2.073       .  S
Cu73         N81   2.073       .  S
N74          N75   1.323       .  A
N74          C78   1.347       .  A
N75          C76   1.345       .  A
C76          C77   1.384       .  A
C76          H79   1.082       .  S
C77          C78   1.388       .  A
C77        C1530   1.485       .  S
C78          H80   1.082       .  S
N81          N82   1.322       .  A
N81          C85   1.345       .  A
N82          C83   1.344       .  A
C83          C84   1.384       .  A
C83          H86   1.082       .  S
C84          C85   1.384       .  A
C84         C945   1.480       .  S
C85          H87   1.082       .  S
C88         C954   1.481       .  S
C88          N89   1.360       .  A
C88          N93   1.358   1_554  A
N89          C90   1.359   1_554  A
C90         C858   1.483       .  S
C90          N91   1.360       .  A
N91          C92   1.359       .  A
C92         C881   1.484       .  S
C92          N93   1.358       .  A
N94          N95   1.323       .  A
N94          C98   1.348       .  A
N94        Cu102   2.085       .  S
N95          C96   1.343       .  A
N95        Cu101   2.068       .  S
C96          C97   1.382       .  A
C96          H99   1.082       .  S
C97          C98   1.386       .  A
C97        C1274   1.480       .  S
C98         H100   1.082       .  S
Cu101       N104   2.068       .  S
Cu102       N112   2.085       .  S
Cu103       N105   2.074       .  S
Cu103       N111   2.075       .  S
N104        N105   1.321       .  A
N104        C108   1.345       .  A
N105        C106   1.345       .  A
C106        C107   1.384       .  A
C106        H109   1.082       .  S
C107        C108   1.382       .  A
C107       C1201   1.477       .  S
C108        H110   1.082       .  S
N111        N112   1.323       .  A
N111        C115   1.344       .  A
N112        C113   1.347       .  A
C113        C114   1.386       .  A
C113        H116   1.082       .  S
C114        C115   1.384       .  A
C114        C890   1.484       .  S
C115        H117   1.082       .  S
N118        N119   1.322       .  A
N118        C122   1.347       .  A
N118       Cu126   2.077       .  S
N119        C120   1.345       .  A
N119       Cu125   2.077       .  S
C120        C121   1.384       .  A
C120        H123   1.082       .  S
C121        C122   1.384       .  A
C121        C986   1.481       .  S
C122        H124   1.082       .  S
Cu125       N128   2.077       .  S
Cu126       N136   2.077       .  S
Cu127       N129   2.077       .  S
Cu127       N135   2.078       .  S
N128        N129   1.322       .  A
N128        C132   1.345       .  A
N129        C130   1.346       .  A
C130        C131   1.386       .  A
C130        H133   1.082       .  S
C131        C132   1.385       .  A
C131       C1562   1.483       .  S
C132        H134   1.082       .  S
N135        N136   1.323       .  A
N135        C139   1.346       .  A
N136        C137   1.345       .  A
C137        C138   1.383       .  A
C137        H140   1.082       .  S
C138        C139   1.384       .  A
C138        C817   1.479       .  S
C139        H141   1.082       .  S
N142        N143   1.322       .  A
N142        C146   1.346       .  A
N142       Cu150   2.073       .  S
N143        C144   1.344       .  A
N143       Cu149   2.074       .  S
C144        C145   1.382       .  A
C144        H147   1.081       .  S
C145        C146   1.382       .  A
C145       C1370   1.476       .  S
C146        H148   1.082       .  S
Cu149       N152   2.075       .  S
Cu150       N160   2.073       .  S
Cu151       N153   2.084       .  S
Cu151       N159   2.085       .  S
N152        N153   1.322       .  A
N152        C156   1.345       .  A
N153        C154   1.347       .  A
C154        C155   1.386       .  A
C154        H157   1.081       .  S
C155        C156   1.384       .  A
C155       C1146   1.483       .  S
C156        H158   1.082       .  S
N159        N160   1.323       .  A
N159        C163   1.346       .  A
N160        C161   1.345       .  A
C161        C162   1.383       .  A
C161        H164   1.082       .  S
C162        C163   1.386       .  A
C162        C785   1.481       .  S
C163        H165   1.082       .  S
C166        C794   1.479   1_556  S
C166        N167   1.357       .  A
C166        N171   1.358       .  A
N167        C168   1.357       .  A
C168        C826   1.480       .  S
C168        N169   1.360       .  A
N169        C170   1.360       .  A
C170        C849   1.491       .  S
C170        N171   1.360       .  A
N172        N173   1.321       .  A
N172        C176   1.349       .  A
N172       Cu180   2.089       .  S
N173        C174   1.341       .  A
N173       Cu179   2.054       .  S
C174        C175   1.380       .  A
C174        H177   1.082       .  S
C175        C176   1.389       .  A
C175        C721   1.480       .  S
C176        H178   1.082       .  S
Cu179       N182   2.054       .  S
Cu180       N190   2.090       .  S
Cu181       N183   2.082       .  S
Cu181       N189   2.084       .  S
N182        N183   1.321       .  A
N182        C186   1.342       .  A
N183        C184   1.345       .  A
C184        C185   1.386       .  A
C184        H187   1.082       .  S
C185        C186   1.381       .  A
C185       C1434   1.478       .  S
C186        H188   1.081       .  S
N189        N190   1.323       .  A
N189        C193   1.347       .  A
N190        C191   1.346       .  A
C191        C192   1.388       .  A
C191        H194   1.082       .  S
C192        C193   1.387       .  A
C192        C753   1.491       .  S
C193        H195   1.082       .  S
C196        C689   1.486       .  S
C196        N197   1.360       .  A
C196        N201   1.358       .  A
N197        C198   1.360   1_565  A
C198        C762   1.484       .  S
C198        N199   1.360       .  A
N199        C200   1.359   1_545  A
C200        C657   1.483       .  S
C200        N201   1.359       .  A
N202        N203   1.323       .  A
N202        C206   1.346       .  A
N202       Cu210   2.083       .  S
N203        C204   1.344       .  A
N203       Cu209   2.071       .  S
C204        C205   1.382       .  A
C204        H207   1.082       .  S
C205        C206   1.385       .  A
C205       C1498   1.478       .  S
C206        H208   1.082       .  S
Cu209       N212   2.070       .  S
Cu210       N220   2.083       .  S
Cu211       N213   2.079       .  S
Cu211       N219   2.080       .  S
N212        N213   1.322       .  A
N212        C216   1.344       .  A
N213        C214   1.346       .  A
C214        C215   1.385       .  A
C214        H217   1.081       .  S
C215        C216   1.382       .  A
C215       C1114   1.478       .  S
C216        H218   1.082       .  S
N219        N220   1.322       .  A
N219        C223   1.345       .  A
N220        C221   1.347       .  A
C221        C222   1.388       .  A
C221        H224   1.082       .  S
C222        C223   1.387       .  A
C222        C698   1.489       .  S
C223        H225   1.080       .  S
N226        N227   1.322       .  A
N226        C230   1.346       .  A
N226       Cu234   2.074       .  S
N227        C228   1.345       .  A
N227       Cu233   2.077       .  S
C228        C229   1.384       .  A
C228        H231   1.082       .  S
C229        C230   1.384       .  A
C229       C1594   1.480       .  S
C230        H232   1.082       .  S
Cu233       N236   2.076       .  S
Cu234       N244   2.074       .  S
Cu235       N237   2.063       .  S
Cu235       N243   2.064       .  S
N236        N237   1.321       .  A
N236        C240   1.344       .  A
N237        C238   1.344       .  A
C238        C239   1.383       .  A
C238        H241   1.081       .  S
C239        C240   1.384       .  A
C239       C1178   1.479       .  S
C240        H242   1.082       .  S
N243        N244   1.322       .  A
N243        C247   1.343       .  A
N244        C245   1.344       .  A
C245        C246   1.383       .  A
C245        H248   1.082       .  S
C246        C247   1.381       .  A
C246        C634   1.474       .  S
C247        H249   1.082       .  S
N250        N251   1.323       .  A
N250        C254   1.347       .  A
N250       Cu258   2.080       .  S
N251        C252   1.346       .  A
N251       Cu257   2.082       .  S
C252        C253   1.385       .  A
C252        H255   1.082       .  S
C253        C254   1.384       .  A
C253       C1306   1.482       .  S
C254        H256   1.082       .  S
Cu257       N260   2.082       .  S
Cu258       N268   2.080       .  S
Cu259       N261   2.078       .  S
Cu259       N267   2.079       .  S
N260        N261   1.323       .  A
N260        C264   1.347       .  A
N261        C262   1.346       .  A
C262        C263   1.383       .  A
C262        H265   1.082       .  S
C263        C264   1.384       .  A
C263       C1050   1.479       .  S
C264        H266   1.082       .  S
N267        N268   1.323       .  A
N267        C271   1.346       .  A
N268        C269   1.345       .  A
C269        C270   1.385       .  A
C269        H272   1.082       .  S
C270        C271   1.385       .  A
C270        C593   1.484       .  S
C271        H273   1.082       .  S
C274        C625   1.471       .  S
C274        N275   1.357       .  A
C274        N279   1.356       .  A
N275        C276   1.359       .  A
C276        C602   1.478   1_565  S
C276        N277   1.360       .  A
N277        C278   1.360       .  A
C278        C666   1.477       .  S
C278        N279   1.357       .  A
C280        C281   1.401       .  A
C280        C285   1.403       .  A
C280        C730   1.481       .  S
C281        C282   1.402       .  A
C281        H286   1.084       .  S
C282        C283   1.402       .  A
C282        C922   1.479       .  S
C283        C284   1.405       .  A
C283        H287   1.084       .  S
C284        C285   1.404       .  A
C284        C561   1.482       .  S
C285        H288   1.084       .  S
C289        C538   1.490   1_655  S
C289        N290   1.361       .  A
C289        N294   1.357       .  A
N290        C291   1.360       .  A
C291        C497   1.493       .  S
C291        N292   1.361       .  A
N292        C293   1.359       .  A
C293        C474   1.480       .  S
C293        N294   1.357       .  A
N295        N296   1.323       .  A
N295        C299   1.344       .  A
N295       Cu303   2.072       .  S
N296        C297   1.344       .  A
N296       Cu302   2.070       .  S
C297        C298   1.380       .  A
C297        H300   1.082       .  S
C298        C299   1.381       .  A
C298        C570   1.471       .  S
C299        H301   1.082       .  S
Cu302       N305   2.070       .  S
Cu303       N313   2.072       .  S
Cu304       N306   2.077       .  S
Cu304       N312   2.077       .  S
N305        N306   1.321       .  A
N305        C309   1.345       .  A
N306        C307   1.345       .  A
C307        C308   1.386       .  A
C307        H310   1.082       .  S
C308        C309   1.384       .  A
C308       C1329   1.482       .  S
C309        H311   1.082       .  S
N312        N313   1.321       .  A
N312        C316   1.343       .  A
N313        C314   1.346       .  A
C314        C315   1.388       .  A
C314        H317   1.082       .  S
C315        C316   1.386       .  A
C315        C529   1.487       .  S
C316        H318   1.082       .  S
N319        N320   1.322       .  A
N319        C323   1.344       .  A
N319       Cu327   2.067       .  S
N320        C321   1.343       .  A
N320       Cu326   2.070       .  S
C321        C322   1.383       .  A
C321        H324   1.082       .  S
C322        C323   1.383       .  A
C322       C1402   1.476       .  S
C323        H325   1.082       .  S
Cu326       N329   2.070       .  S
Cu327       N337   2.068       .  S
Cu328       N330   2.079       .  S
Cu328       N336   2.079       .  S
N329        N330   1.322       .  A
N329        C333   1.344       .  A
N330        C331   1.346       .  A
C331        C332   1.385       .  A
C331        H334   1.082       .  S
C332        C333   1.383       .  A
C332       C1009   1.478       .  S
C333        H335   1.082       .  S
N336        N337   1.323       .  A
N336        C340   1.345       .  A
N337        C338   1.344       .  A
C338        C339   1.383       .  A
C338        H341   1.083       .  S
C339        C340   1.385       .  A
C339        C506   1.480       .  S
C340        H342   1.082       .  S
N343        N344   1.323       .  A
N343        C347   1.345       .  A
N343       Cu351   2.073       .  S
N344        C345   1.344       .  A
N344       Cu350   2.074       .  S
C345        C346   1.381       .  A
C345        H348   1.082       .  S
C346        C347   1.383       .  A
C346       C1082   1.475       .  S
C347        H349   1.082       .  S
Cu350       N353   2.073       .  S
Cu351       N361   2.073       .  S
Cu352       N354   2.069       .  S
Cu352       N360   2.069       .  S
N353        N354   1.321       .  A
N353        C357   1.345       .  A
N354        C355   1.345       .  A
C355        C356   1.384       .  A
C355        H358   1.081       .  S
C356        C357   1.384       .  A
C356       C1626   1.480       .  S
C357        H359   1.082       .  S
N360        N361   1.322       .  A
N360        C364   1.343       .  A
N361        C362   1.345       .  A
C362        C363   1.385       .  A
C362        H365   1.082       .  S
C363        C364   1.384       .  A
C363        C442   1.480       .  S
C364        H366   1.082       .  S
N367        N368   1.323       .  A
N367        C371   1.347       .  A
N367       Cu375   2.082       .  S
N368        C369   1.345       .  A
N368       Cu374   2.074       .  S
C369        C370   1.382       .  A
C369        H372   1.082       .  S
C370        C371   1.385       .  A
C370       C1466   1.478       .  S
C371        H373   1.082       .  S
Cu374       N377   2.074       .  S
Cu375       N385   2.082       .  S
Cu376       N378   2.085       .  S
Cu376       N384   2.085       .  S
N377        N378   1.322       .  A
N377        C381   1.345       .  A
N378        C379   1.347       .  A
C379        C380   1.385       .  A
C379        H382   1.081       .  S
C380        C381   1.384       .  A
C380       C1242   1.482       .  S
C381        H383   1.081       .  S
N384        N385   1.323       .  A
N384        C388   1.347       .  A
N385        C386   1.346       .  A
C386        C387   1.387       .  A
C386        H389   1.082       .  S
C387        C388   1.387       .  A
C387        C410   1.487       .  S
C388        H390   1.082       .  S
C391        C433   1.486       .  S
C391        N392   1.359       .  A
C391        N396   1.359       .  A
N392        C393   1.359       .  A
C393        C465   1.484       .  S
C393        N394   1.361   1_655  A
N394        C395   1.361       .  A
C395        C401   1.488       .  S
C395        N396   1.359   1_455  A
C397        C398   1.400       .  A
C397        C402   1.406       .  A
C397        H407   1.085       .  S
C398        C399   1.410       .  A
C398        C403   1.485       .  S
C399        C400   1.405       .  A
C399        C404   1.506       .  S
C400        C401   1.407       .  A
C400        H405   1.084       .  S
C401        C402   1.422       .  A
C402        C406   1.509       .  S
C403        C408   1.410       .  A
C403        C412   1.401       .  A
C404        H420   1.110       .  S
C404        H421   1.110       .  S
C404        H422   1.111       .  S
C406        H417   1.110       .  S
C406        H418   1.111       .  S
C406        H419   1.105   1_455  S
C408        C409   1.406       .  A
C408        C413   1.506       .  S
C409        C410   1.406       .  A
C409        H414   1.084       .  S
C410        C411   1.419       .  A
C411        C412   1.405       .  A
C411        C415   1.508       .  S
C412        H416   1.084       .  S
C413        H423   1.111       .  S
C413        H424   1.110       .  S
C413        H425   1.110       .  S
C415        H426   1.110       .  S
C415        H427   1.106       .  S
C415        H428   1.111       .  S
C429        C430   1.400       .  A
C429        C434   1.404       .  A
C429        H439   1.085       .  S
C430        C431   1.409       .  A
C430        C435   1.481       .  S
C431        C432   1.403       .  A
C431        C436   1.507       .  S
C432        C433   1.407       .  A
C432        H437   1.084       .  S
C433        C434   1.421       .  A
C434        C438   1.508       .  S
C435        C440   1.410       .  A
C435        C444   1.400       .  A
C436        H452   1.110       .  S
C436        H453   1.110       .  S
C436        H454   1.111       .  S
C438        H449   1.110       .  S
C438        H450   1.111       .  S
C438        H451   1.105       .  S
C440        C441   1.404       .  A
C440        C445   1.506       .  S
C441        C442   1.406       .  A
C441        H446   1.084       .  S
C442        C443   1.418       .  A
C443        C444   1.401       .  A
C443        C447   1.508       .  S
C444        H448   1.084       .  S
C445        H455   1.111       .  S
C445        H456   1.110       .  S
C445        H457   1.110       .  S
C447        H458   1.110       .  S
C447        H459   1.105       .  S
C447        H460   1.111       .  S
C461        C462   1.400       .  A
C461        C466   1.405       .  A
C461        H471   1.085       .  S
C462        C463   1.411       .  A
C462        C467   1.484       .  S
C463        C464   1.406       .  A
C463        C468   1.506   1_655  S
C464        C465   1.406       .  A
C464        H469   1.084   1_655  S
C465        C466   1.420       .  A
C466        C470   1.508       .  S
C467        C472   1.411   1_565  A
C467        C476   1.402   1_565  A
C468        H484   1.110       .  S
C468        H485   1.110       .  S
C468        H486   1.111       .  S
C470        H481   1.111       .  S
C470        H482   1.110       .  S
C470        H483   1.106       .  S
C472        C473   1.404       .  A
C472        C477   1.506   1_645  S
C473        C474   1.404       .  A
C473        H478   1.084   1_655  S
C474        C475   1.418       .  A
C475        C476   1.406       .  A
C475        C479   1.508       .  S
C476        H480   1.084       .  S
C477        H487   1.111   1_565  S
C477        H488   1.110   1_455  S
C477        H489   1.110       .  S
C479        H490   1.110       .  S
C479        H491   1.107       .  S
C479        H492   1.111       .  S
C493        C494   1.399       .  A
C493        C498   1.406       .  A
C493        H503   1.084       .  S
C494        C495   1.409       .  A
C494        C499   1.482       .  S
C495        C496   1.404       .  A
C495        C500   1.507       .  S
C496        C497   1.409       .  A
C496        H501   1.084       .  S
C497        C498   1.422       .  A
C498        C502   1.508       .  S
C499        C504   1.410       .  A
C499        C508   1.401       .  A
C500        H516   1.110       .  S
C500        H517   1.110       .  S
C500        H518   1.111       .  S
C502        H513   1.109       .  S
C502        H514   1.111       .  S
C502        H515   1.110       .  S
C504        C505   1.403       .  A
C504        C509   1.506       .  S
C505        C506   1.405       .  A
C505        H510   1.084       .  S
C506        C507   1.418       .  A
C507        C508   1.404       .  A
C507        C511   1.508       .  S
C508        H512   1.084       .  S
C509        H519   1.111       .  S
C509        H520   1.110       .  S
C509        H521   1.110       .  S
C511        H522   1.110       .  S
C511        H523   1.106       .  S
C511        H524   1.111       .  S
C525        C526   1.400       .  A
C525        C530   1.405       .  A
C525        H535   1.085       .  S
C526        C527   1.408       .  A
C526        C531   1.482       .  S
C527        C528   1.403       .  A
C527        C532   1.507       .  S
C528        C529   1.407       .  A
C528        H533   1.084       .  S
C529        C530   1.421       .  A
C530        C534   1.508       .  S
C531        C536   1.409       .  A
C531        C540   1.399       .  A
C532        H548   1.110       .  S
C532        H549   1.109       .  S
C532        H550   1.111       .  S
C534        H545   1.111       .  S
C534        H546   1.110       .  S
C534        H547   1.105       .  S
C536        C537   1.403       .  A
C536        C541   1.507       .  S
C537        C538   1.407       .  A
C537        H542   1.084       .  S
C538        C539   1.422       .  A
C539        C540   1.406       .  A
C539        C543   1.508       .  S
C540        H544   1.084       .  S
C541        H551   1.111       .  S
C541        H552   1.110       .  S
C541        H553   1.110       .  S
C543        H554   1.111       .  S
C543        H555   1.110       .  S
C543        H556   1.109       .  S
C557        C558   1.400       .  A
C557        C562   1.403       .  A
C557        H567   1.085       .  S
C558        C559   1.409       .  A
C558        C563   1.475       .  S
C559        C560   1.401       .  A
C559        C564   1.507       .  S
C560        C561   1.405       .  A
C560        H565   1.084       .  S
C561        C562   1.418       .  A
C562        C566   1.507       .  S
C563        C568   1.410       .  A
C563        C572   1.400       .  A
C564        H580   1.110       .  S
C564        H581   1.110       .  S
C564        H582   1.111       .  S
C566        H577   1.110       .  S
C566        H578   1.111       .  S
C566        H579   1.107       .  S
C568        C569   1.401       .  A
C568        C573   1.507       .  S
C569        C570   1.403       .  A
C569        H574   1.084       .  S
C570        C571   1.415       .  A
C571        C572   1.402       .  A
C571        C575   1.508       .  S
C572        H576   1.084       .  S
C573        H583   1.111       .  S
C573        H584   1.110       .  S
C573        H585   1.110       .  S
C575        H586   1.110       .  S
C575        H587   1.107       .  S
C575        H588   1.111       .  S
C589        C590   1.400       .  A
C589        C594   1.405       .  A
C589        H599   1.084       .  S
C590        C591   1.410       .  A
C590        C595   1.482       .  S
C591        C592   1.404       .  A
C591        C596   1.506       .  S
C592        C593   1.405       .  A
C592        H597   1.084       .  S
C593        C594   1.419       .  A
C594        C598   1.508       .  S
C595        C600   1.410       .  A
C595        C604   1.400       .  A
C596        H612   1.110       .  S
C596        H613   1.110       .  S
C596        H614   1.111       .  S
C598        H609   1.110       .  S
C598        H610   1.111       .  S
C598        H611   1.106       .  S
C600        C601   1.405       .  A
C600        C605   1.506       .  S
C601        C602   1.405       .  A
C601        H606   1.084       .  S
C602        C603   1.418       .  A
C603        C604   1.403       .  A
C603        C607   1.509       .  S
C604        H608   1.085       .  S
C605        H615   1.111       .  S
C605        H616   1.110       .  S
C605        H617   1.110       .  S
C607        H618   1.110   1_545  S
C607        H619   1.106   1_545  S
C607        H620   1.111       .  S
C621        C622   1.401       .  A
C621        C626   1.402       .  A
C621        H631   1.085       .  S
C622        C623   1.410       .  A
C622        C627   1.477       .  S
C623        C624   1.402       .  A
C623        C628   1.506       .  S
C624        C625   1.402       .  A
C624        H629   1.084       .  S
C625        C626   1.416       .  A
C626        C630   1.508       .  S
C627        C632   1.410       .  A
C627        C636   1.401       .  A
C628        H644   1.110       .  S
C628        H645   1.110       .  S
C628        H646   1.111       .  S
C630        H641   1.111       .  S
C630        H642   1.110       .  S
C630        H643   1.107       .  S
C632        C633   1.401       .  A
C632        C637   1.507       .  S
C633        C634   1.403       .  A
C633        H638   1.084       .  S
C634        C635   1.417       .  A
C635        C636   1.402       .  A
C635        C639   1.508       .  S
C636        H640   1.084       .  S
C637        H647   1.111       .  S
C637        H648   1.110       .  S
C637        H649   1.110       .  S
C639        H650   1.111       .  S
C639        H651   1.107       .  S
C639        H652   1.110       .  S
C653        C654   1.400   1_544  A
C653        C658   1.404       .  A
C653        H663   1.085   1_554  S
C654        C655   1.409   1_556  A
C654        C659   1.480       .  S
C655        C656   1.403       .  A
C655        C660   1.507   1_554  S
C656        C657   1.406       .  A
C656        H661   1.084       .  S
C657        C658   1.420   1_565  A
C658        C662   1.508       .  S
C659        C664   1.410       .  A
C659        C668   1.400       .  A
C660        H676   1.110       .  S
C660        H677   1.109       .  S
C660        H678   1.111   1_556  S
C662        H673   1.111       .  S
C662        H674   1.110       .  S
C662        H675   1.105       .  S
C664        C665   1.403       .  A
C664        C669   1.507       .  S
C665        C666   1.405       .  A
C665        H670   1.084       .  S
C666        C667   1.417       .  A
C667        C668   1.404       .  A
C667        C671   1.508   1_565  S
C668        H672   1.084   1_565  S
C669        H679   1.111       .  S
C669        H680   1.110       .  S
C669        H681   1.109       .  S
C671        H682   1.110       .  S
C671        H683   1.106       .  S
C671        H684   1.111       .  S
C685        C686   1.401       .  A
C685        C690   1.406       .  A
C685        H695   1.084       .  S
C686        C687   1.410       .  A
C686        C691   1.484       .  S
C687        C688   1.404       .  A
C687        C692   1.506       .  S
C688        C689   1.406       .  A
C688        H693   1.084       .  S
C689        C690   1.419       .  A
C690        C694   1.508       .  S
C691        C696   1.410       .  A
C691        C700   1.400       .  A
C692        H708   1.110       .  S
C692        H709   1.110       .  S
C692        H710   1.111       .  S
C694        H705   1.109       .  S
C694        H706   1.111       .  S
C694        H707   1.111       .  S
C696        C697   1.406       .  A
C696        C701   1.506       .  S
C697        C698   1.407       .  A
C697        H702   1.084       .  S
C698        C699   1.419       .  A
C699        C700   1.406       .  A
C699        C703   1.507       .  S
C700        H704   1.084       .  S
C701        H711   1.111       .  S
C701        H712   1.110       .  S
C701        H713   1.110       .  S
C703        H714   1.107       .  S
C703        H715   1.110       .  S
C703        H716   1.111       .  S
C717        C718   1.400       .  A
C717        C722   1.403       .  A
C717        H727   1.085       .  S
C718        C719   1.408       .  A
C718        C723   1.478       .  S
C719        C720   1.402       .  A
C719        C724   1.507       .  S
C720        C721   1.407       .  A
C720        H725   1.084       .  S
C721        C722   1.417       .  A
C722        C726   1.507       .  S
C723        C728   1.409       .  A
C723        C732   1.400       .  A
C724        H740   1.110       .  S
C724        H741   1.110       .  S
C724        H742   1.111       .  S
C726        H737   1.110       .  S
C726        H738   1.111       .  S
C726        H739   1.105       .  S
C728        C729   1.402       .  A
C728        C733   1.506       .  S
C729        C730   1.405       .  A
C729        H734   1.084       .  S
C730        C731   1.418       .  A
C731        C732   1.402       .  A
C731        C735   1.508       .  S
C732        H736   1.085       .  S
C733        H743   1.111       .  S
C733        H744   1.110       .  S
C733        H745   1.110       .  S
C735        H746   1.110       .  S
C735        H747   1.107       .  S
C735        H748   1.111       .  S
C749        C750   1.400       .  A
C749        C754   1.405       .  A
C749        H759   1.085       .  S
C750        C751   1.410       .  A
C750        C755   1.485       .  S
C751        C752   1.406       .  A
C751        C756   1.506       .  S
C752        C753   1.408       .  A
C752        H757   1.084       .  S
C753        C754   1.420       .  A
C754        C758   1.507       .  S
C755        C760   1.410       .  A
C755        C764   1.401       .  A
C756        H772   1.110       .  S
C756        H773   1.110       .  S
C756        H774   1.111       .  S
C758        H769   1.110       .  S
C758        H770   1.111       .  S
C758        H771   1.106       .  S
C760        C761   1.405       .  A
C760        C765   1.506       .  S
C761        C762   1.406       .  A
C761        H766   1.084       .  S
C762        C763   1.419       .  A
C763        C764   1.405       .  A
C763        C767   1.508       .  S
C764        H768   1.085       .  S
C765        H775   1.111       .  S
C765        H776   1.110       .  S
C765        H777   1.110       .  S
C767        H778   1.110       .  S
C767        H779   1.106       .  S
C767        H780   1.111       .  S
C781        C782   1.400       .  A
C781        C786   1.402       .  A
C781        H791   1.085       .  S
C782        C783   1.410       .  A
C782        C787   1.481       .  S
C783        C784   1.404       .  A
C783        C788   1.506       .  S
C784        C785   1.406       .  A
C784        H789   1.084       .  S
C785        C786   1.417       .  A
C786        C790   1.507       .  S
C787        C792   1.409       .  A
C787        C796   1.401       .  A
C788        H804   1.110       .  S
C788        H805   1.110       .  S
C788        H806   1.111       .  S
C790        H801   1.111       .  S
C790        H802   1.110       .  S
C790        H803   1.106       .  S
C792        C793   1.403       .  A
C792        C797   1.506       .  S
C793        C794   1.406       .  A
C793        H798   1.084   1_554  S
C794        C795   1.418       .  A
C795        C796   1.403       .  A
C795        C799   1.509       .  S
C796        H800   1.085       .  S
C797        H807   1.111       .  S
C797        H808   1.110       .  S
C797        H809   1.110       .  S
C799        H810   1.111       .  S
C799        H811   1.106       .  S
C799        H812   1.110       .  S
C813        C814   1.401       .  A
C813        C818   1.404       .  A
C813        H823   1.084       .  S
C814        C815   1.410       .  A
C814        C819   1.482       .  S
C815        C816   1.403       .  A
C815        C820   1.506       .  S
C816        C817   1.405       .  A
C816        H821   1.084       .  S
C817        C818   1.417       .  A
C818        C822   1.508       .  S
C819        C824   1.411       .  A
C819        C828   1.400       .  A
C820        H836   1.110       .  S
C820        H837   1.110       .  S
C820        H838   1.111       .  S
C822        H833   1.111       .  S
C822        H834   1.110       .  S
C822        H835   1.106       .  S
C824        C825   1.404       .  A
C824        C829   1.506       .  S
C825        C826   1.405       .  A
C825        H830   1.084       .  S
C826        C827   1.419       .  A
C827        C828   1.403       .  A
C827        C831   1.508       .  S
C828        H832   1.084       .  S
C829        H839   1.111       .  S
C829        H840   1.110       .  S
C829        H841   1.110       .  S
C831        H842   1.111       .  S
C831        H843   1.106       .  S
C831        H844   1.110       .  S
C845        C846   1.400       .  A
C845        C850   1.406       .  A
C845        H855   1.084       .  S
C846        C847   1.409       .  A
C846        C851   1.484       .  S
C847        C848   1.404       .  A
C847        C852   1.506   1_556  S
C848        C849   1.409       .  A
C848        H853   1.084   1_556  S
C849        C850   1.421       .  A
C850        C854   1.508       .  S
C851        C856   1.410   1_655  A
C851        C860   1.402   1_656  A
C852        H868   1.110       .  S
C852        H869   1.110       .  S
C852        H870   1.111       .  S
C854        H865   1.110       .  S
C854        H866   1.111       .  S
C854        H867   1.110       .  S
C856        C857   1.403       .  A
C856        C861   1.506       .  S
C857        C858   1.405       .  A
C857        H862   1.084       .  S
C858        C859   1.417   1_556  A
C859        C860   1.407       .  A
C859        C863   1.507       .  S
C860        H864   1.084   1_455  S
C861        H871   1.111       .  S
C861        H872   1.110   1_455  S
C861        H873   1.110   1_455  S
C863        H874   1.111       .  S
C863        H875   1.110       .  S
C863        H876   1.109       .  S
C877        C878   1.400       .  A
C877        C882   1.405       .  A
C877        H887   1.085       .  S
C878        C879   1.410       .  A
C878        C883   1.482       .  S
C879        C880   1.403       .  A
C879        C884   1.507       .  S
C880        C881   1.407       .  A
C880        H885   1.084       .  S
C881        C882   1.419       .  A
C882        C886   1.508       .  S
C883        C888   1.410       .  A
C883        C892   1.400       .  A
C884        H900   1.110       .  S
C884        H901   1.110       .  S
C884        H902   1.111       .  S
C886        H897   1.110       .  S
C886        H898   1.111       .  S
C886        H899   1.106       .  S
C888        C889   1.405       .  A
C888        C893   1.506       .  S
C889        C890   1.406       .  A
C889        H894   1.084       .  S
C890        C891   1.420       .  A
C891        C892   1.403       .  A
C891        C895   1.508       .  S
C892        H896   1.085       .  S
C893        H903   1.111       .  S
C893        H904   1.110       .  S
C893        H905   1.110       .  S
C895        H906   1.110       .  S
C895        H907   1.105       .  S
C895        H908   1.111       .  S
C909        C910   1.401       .  A
C909        C914   1.406       .  A
C909        H919   1.085       .  S
C910        C911   1.410       .  A
C910        C915   1.482       .  S
C911        C912   1.403       .  A
C911        C916   1.507       .  S
C912        C913   1.404       .  A
C912        H917   1.084       .  S
C913        C914   1.421       .  A
C914        C918   1.508       .  S
C915        C920   1.411       .  A
C915        C924   1.401       .  A
C916        H932   1.110       .  S
C916        H933   1.111       .  S
C916        H934   1.110       .  S
C918        H929   1.110       .  S
C918        H930   1.111       .  S
C918        H931   1.105       .  S
C920        C921   1.405       .  A
C920        C925   1.506       .  S
C921        C922   1.405       .  A
C921        H926   1.084       .  S
C922        C923   1.416       .  A
C923        C924   1.401       .  A
C923        C927   1.509       .  S
C924        H928   1.085       .  S
C925        H935   1.111       .  S
C925        H936   1.110       .  S
C925        H937   1.110       .  S
C927        H938   1.110       .  S
C927        H939   1.107       .  S
C927        H940   1.111       .  S
C941        C942   1.400       .  A
C941        C946   1.403       .  A
C941        H951   1.085       .  S
C942        C943   1.409       .  A
C942        C947   1.481       .  S
C943        C944   1.404       .  A
C943        C948   1.506       .  S
C944        C945   1.405       .  A
C944        H949   1.084       .  S
C945        C946   1.419       .  A
C946        C950   1.508       .  S
C947        C952   1.410       .  A
C947        C956   1.400       .  A
C948        H964   1.110       .  S
C948        H965   1.110       .  S
C948        H966   1.111       .  S
C950        H961   1.111       .  S
C950        H962   1.110       .  S
C950        H963   1.105       .  S
C952        C953   1.403       .  A
C952        C957   1.507       .  S
C953        C954   1.405       .  A
C953        H958   1.084       .  S
C954        C955   1.419       .  A
C955        C956   1.404       .  A
C955        C959   1.508       .  S
C956        H960   1.085       .  S
C957        H967   1.111       .  S
C957        H968   1.110       .  S
C957        H969   1.110       .  S
C959        H970   1.111       .  S
C959        H971   1.105       .  S
C959        H972   1.110       .  S
C973        C974   1.402       .  A
C973        C978   1.405       .  A
C973        H983   1.084       .  S
C974        C975   1.411       .  A
C974        C979   1.483       .  S
C975        C976   1.404       .  A
C975        C980   1.506       .  S
C976        C977   1.404       .  A
C976        H981   1.084       .  S
C977        C978   1.416       .  A
C978        C982   1.507       .  S
C979        C984   1.411       .  A
C979        C988   1.400       .  A
C980        H996   1.110       .  S
C980        H997   1.110       .  S
C980        H998   1.111       .  S
C982        H993   1.110       .  S
C982        H994   1.110       .  S
C982        H995   1.108       .  S
C984        C985   1.406       .  A
C984        C989   1.506       .  S
C985        C986   1.405       .  A
C985        H990   1.084       .  S
C986        C987   1.417       .  A
C987        C988   1.403       .  A
C987        C991   1.508       .  S
C988        H992   1.085       .  S
C989        H999   1.111       .  S
C989       H1000   1.110       .  S
C989       H1001   1.110       .  S
C991       H1002   1.111       .  S
C991       H1003   1.106       .  S
C991       H1004   1.110       .  S
C1005      C1006   1.401       .  A
C1005      C1010   1.404       .  A
C1005      H1015   1.085       .  S
C1006      C1007   1.410       .  A
C1006      C1011   1.479       .  S
C1007      C1008   1.402       .  A
C1007      C1012   1.507       .  S
C1008      C1009   1.404       .  A
C1008      H1013   1.084       .  S
C1009      C1010   1.417       .  A
C1010      C1014   1.507       .  S
C1011      C1016   1.412       .  A
C1011      C1020   1.401       .  A
C1012      H1028   1.110       .  S
C1012      H1029   1.108       .  S
C1012      H1030   1.111       .  S
C1014      H1025   1.111       .  S
C1014      H1026   1.111       .  S
C1014      H1027   1.106       .  S
C1016      C1017   1.403       .  A
C1016      C1021   1.508       .  S
C1017      C1018   1.403       .  A
C1017      H1022   1.084       .  S
C1018      C1019   1.414       .  A
C1019      C1020   1.404       .  A
C1019      C1023   1.507       .  S
C1020      H1024   1.084       .  S
C1021      H1031   1.111       .  S
C1021      H1032   1.110       .  S
C1021      H1033   1.108       .  S
C1023      H1034   1.111       .  S
C1023      H1035   1.111       .  S
C1023      H1036   1.109       .  S
C1037      C1038   1.401       .  A
C1037      C1042   1.405       .  A
C1037      H1047   1.084       .  S
C1038      C1039   1.410       .  A
C1038      C1043   1.482       .  S
C1039      C1040   1.402       .  A
C1039      C1044   1.506       .  S
C1040      C1041   1.404       .  A
C1040      H1045   1.084       .  S
C1041      C1042   1.420       .  A
C1042      C1046   1.508       .  S
C1043      C1048   1.410       .  A
C1043      C1052   1.400       .  A
C1044      H1060   1.110       .  S
C1044      H1061   1.110       .  S
C1044      H1062   1.111       .  S
C1046      H1057   1.110       .  S
C1046      H1058   1.111       .  S
C1046      H1059   1.107       .  S
C1048      C1049   1.406       .  A
C1048      C1053   1.506       .  S
C1049      C1050   1.405       .  A
C1049      H1054   1.084       .  S
C1050      C1051   1.416       .  A
C1051      C1052   1.402       .  A
C1051      C1055   1.507       .  S
C1052      H1056   1.085       .  S
C1053      H1063   1.111       .  S
C1053      H1064   1.110       .  S
C1053      H1065   1.110       .  S
C1055      H1066   1.110       .  S
C1055      H1067   1.107       .  S
C1055      H1068   1.111       .  S
C1069      C1070   1.400       .  A
C1069      C1074   1.403       .  A
C1069      H1079   1.084       .  S
C1070      C1071   1.409       .  A
C1070      C1075   1.477       .  S
C1071      C1072   1.401       .  A
C1071      C1076   1.507       .  S
C1072      C1073   1.405       .  A
C1072      H1077   1.084       .  S
C1073      C1074   1.418       .  A
C1074      C1078   1.508       .  S
C1075      C1080   1.409       .  A
C1075      C1084   1.400       .  A
C1076      H1092   1.110       .  S
C1076      H1093   1.110       .  S
C1076      H1094   1.111       .  S
C1078      H1089   1.110       .  S
C1078      H1090   1.110       .  S
C1078      H1091   1.107       .  S
C1080      C1081   1.402       .  A
C1080      C1085   1.507       .  S
C1081      C1082   1.403       .  A
C1081      H1086   1.084       .  S
C1082      C1083   1.417       .  A
C1083      C1084   1.403       .  A
C1083      C1087   1.508       .  S
C1084      H1088   1.085       .  S
C1085      H1095   1.111       .  S
C1085      H1096   1.110       .  S
C1085      H1097   1.110       .  S
C1087      H1098   1.110       .  S
C1087      H1099   1.106       .  S
C1087      H1100   1.111       .  S
C1101      C1102   1.401       .  A
C1101      C1106   1.402       .  A
C1101      H1111   1.084       .  S
C1102      C1103   1.410       .  A
C1102      C1107   1.479       .  S
C1103      C1104   1.403       .  A
C1103      C1108   1.506       .  S
C1104      C1105   1.402       .  A
C1104      H1109   1.084       .  S
C1105      C1106   1.414       .  A
C1106      C1110   1.508       .  S
C1107      C1112   1.410       .  A
C1107      C1116   1.401       .  A
C1108      H1124   1.110       .  S
C1108      H1125   1.110       .  S
C1108      H1126   1.111       .  S
C1110      H1121   1.110       .  S
C1110      H1122   1.110       .  S
C1110      H1123   1.108       .  S
C1112      C1113   1.403       .  A
C1112      C1117   1.506       .  S
C1113      C1114   1.404       .  A
C1113      H1118   1.084       .  S
C1114      C1115   1.415       .  A
C1115      C1116   1.405       .  A
C1115      C1119   1.507       .  S
C1116      H1120   1.084       .  S
C1117      H1127   1.111       .  S
C1117      H1128   1.110       .  S
C1117      H1129   1.110       .  S
C1119      H1130   1.110       .  S
C1119      H1131   1.108       .  S
C1119      H1132   1.111       .  S
C1133      C1134   1.402       .  A
C1133      C1138   1.404       .  A
C1133      H1143   1.084       .  S
C1134      C1135   1.411       .  A
C1134      C1139   1.481       .  S
C1135      C1136   1.404       .  A
C1135      C1140   1.506       .  S
C1136      C1137   1.403       .  A
C1136      H1141   1.084       .  S
C1137      C1138   1.412       .  A
C1138      C1142   1.507       .  S
C1139      C1144   1.410       .  A
C1139      C1148   1.400       .  A
C1140      H1156   1.110       .  S
C1140      H1157   1.109       .  S
C1140      H1158   1.111       .  S
C1142      H1153   1.110       .  S
C1142      H1154   1.109       .  S
C1142      H1155   1.111       .  S
C1144      C1145   1.405       .  A
C1144      C1149   1.507       .  S
C1145      C1146   1.405       .  A
C1145      H1150   1.084       .  S
C1146      C1147   1.416       .  A
C1147      C1148   1.405       .  A
C1147      C1151   1.506       .  S
C1148      H1152   1.084       .  S
C1149      H1159   1.111       .  S
C1149      H1160   1.110       .  S
C1149      H1161   1.110       .  S
C1151      H1162   1.110       .  S
C1151      H1163   1.108       .  S
C1151      H1164   1.111       .  S
C1165      C1166   1.401       .  A
C1165      C1170   1.401       .  A
C1165      H1175   1.085       .  S
C1166      C1167   1.410       .  A
C1166      C1171   1.479       .  S
C1167      C1168   1.404       .  A
C1167      C1172   1.506       .  S
C1168      C1169   1.403       .  A
C1168      H1173   1.084       .  S
C1169      C1170   1.415       .  A
C1170      C1174   1.508       .  S
C1171      C1176   1.410       .  A
C1171      C1180   1.400       .  A
C1172      H1188   1.110       .  S
C1172      H1189   1.110       .  S
C1172      H1190   1.111       .  S
C1174      H1185   1.111       .  S
C1174      H1186   1.110       .  S
C1174      H1187   1.108       .  S
C1176      C1177   1.402       .  A
C1176      C1181   1.506       .  S
C1177      C1178   1.404       .  A
C1177      H1182   1.084       .  S
C1178      C1179   1.416       .  A
C1179      C1180   1.404       .  A
C1179      C1183   1.507       .  S
C1180      H1184   1.084       .  S
C1181      H1191   1.111       .  S
C1181      H1192   1.110       .  S
C1181      H1193   1.110       .  S
C1183      H1194   1.110       .  S
C1183      H1195   1.108       .  S
C1183      H1196   1.111       .  S
C1197      C1198   1.400       .  A
C1197      C1202   1.402       .  A
C1197      H1207   1.085       .  S
C1198      C1199   1.410       .  A
C1198      C1203   1.479       .  S
C1199      C1200   1.404       .  A
C1199      C1204   1.506       .  S
C1200      C1201   1.404       .  A
C1200      H1205   1.084       .  S
C1201      C1202   1.416       .  A
C1202      C1206   1.508       .  S
C1203      C1208   1.411       .  A
C1203      C1212   1.400       .  A
C1204      H1220   1.110       .  S
C1204      H1221   1.110       .  S
C1204      H1222   1.111       .  S
C1206      H1217   1.110       .  S
C1206      H1218   1.111       .  S
C1206      H1219   1.107       .  S
C1208      C1209   1.405       .  A
C1208      C1213   1.506       .  S
C1209      C1210   1.403       .  A
C1209      H1214   1.084       .  S
C1210      C1211   1.415       .  A
C1211      C1212   1.401       .  A
C1211      C1215   1.508       .  S
C1212      H1216   1.084       .  S
C1213      H1223   1.111       .  S
C1213      H1224   1.110       .  S
C1213      H1225   1.110       .  S
C1215      H1226   1.110       .  S
C1215      H1227   1.108       .  S
C1215      H1228   1.110       .  S
C1229      C1230   1.402       .  A
C1229      C1234   1.405       .  A
C1229      H1239   1.084       .  S
C1230      C1231   1.411       .  A
C1230      C1235   1.483       .  S
C1231      C1232   1.405       .  A
C1231      C1236   1.507       .  S
C1232      C1233   1.405       .  A
C1232      H1237   1.084       .  S
C1233      C1234   1.416       .  A
C1234      C1238   1.508       .  S
C1235      C1240   1.412       .  A
C1235      C1244   1.401       .  A
C1236      H1252   1.110       .  S
C1236      H1253   1.108       .  S
C1236      H1254   1.111       .  S
C1238      H1249   1.111       .  S
C1238      H1250   1.110       .  S
C1238      H1251   1.108       .  S
C1240      C1241   1.406       .  A
C1240      C1245   1.507       .  S
C1241      C1242   1.404       .  A
C1241      H1246   1.084       .  S
C1242      C1243   1.416       .  A
C1243      C1244   1.405       .  A
C1243      C1247   1.507       .  S
C1244      H1248   1.085       .  S
C1245      H1255   1.111       .  S
C1245      H1256   1.110       .  S
C1245      H1257   1.108       .  S
C1247      H1258   1.111       .  S
C1247      H1259   1.108       .  S
C1247      H1260   1.110       .  S
C1261      C1262   1.401       .  A
C1261      C1266   1.404       .  A
C1261      H1271   1.084       .  S
C1262      C1263   1.410       .  A
C1262      C1267   1.482       .  S
C1263      C1264   1.404       .  A
C1263      C1268   1.506       .  S
C1264      C1265   1.405       .  A
C1264      H1269   1.084       .  S
C1265      C1266   1.418       .  A
C1266      C1270   1.508       .  S
C1267      C1272   1.410       .  A
C1267      C1276   1.400       .  A
C1268      H1284   1.110       .  S
C1268      H1285   1.110       .  S
C1268      H1286   1.111       .  S
C1270      H1281   1.110       .  S
C1270      H1282   1.111       .  S
C1270      H1283   1.107       .  S
C1272      C1273   1.405       .  A
C1272      C1277   1.506       .  S
C1273      C1274   1.404       .  A
C1273      H1278   1.084       .  S
C1274      C1275   1.418       .  A
C1275      C1276   1.403       .  A
C1275      C1279   1.508       .  S
C1276      H1280   1.085       .  S
C1277      H1287   1.111       .  S
C1277      H1288   1.110       .  S
C1277      H1289   1.110       .  S
C1279      H1290   1.110       .  S
C1279      H1291   1.106       .  S
C1279      H1292   1.111       .  S
C1293      C1294   1.403       .  A
C1293      C1298   1.406       .  A
C1293      H1303   1.084       .  S
C1294      C1295   1.412       .  A
C1294      C1299   1.487       .  S
C1295      C1296   1.403       .  A
C1295      C1300   1.506       .  S
C1296      C1297   1.404       .  A
C1296      H1301   1.084       .  S
C1297      C1298   1.417       .  A
C1298      C1302   1.507       .  S
C1299      C1304   1.412       .  A
C1299      C1308   1.402       .  A
C1300      H1316   1.109       .  S
C1300      H1317   1.110       .  S
C1300      H1318   1.111       .  S
C1302      H1313   1.111       .  S
C1302      H1314   1.110       .  S
C1302      H1315   1.107       .  S
C1304      C1305   1.407       .  A
C1304      C1309   1.506       .  S
C1305      C1306   1.405       .  A
C1305      H1310   1.084       .  S
C1306      C1307   1.417       .  A
C1307      C1308   1.404       .  A
C1307      C1311   1.508       .  S
C1308      H1312   1.084       .  S
C1309      H1319   1.111       .  S
C1309      H1320   1.110       .  S
C1309      H1321   1.110       .  S
C1311      H1322   1.111       .  S
C1311      H1323   1.106       .  S
C1311      H1324   1.110       .  S
C1325      C1326   1.400       .  A
C1325      C1330   1.403       .  A
C1325      H1335   1.085       .  S
C1326      C1327   1.410       .  A
C1326      C1331   1.482       .  S
C1327      C1328   1.405       .  A
C1327      C1332   1.506       .  S
C1328      C1329   1.406       .  A
C1328      H1333   1.084       .  S
C1329      C1330   1.419       .  A
C1330      C1334   1.508       .  S
C1331      C1336   1.410       .  A
C1331      C1340   1.400       .  A
C1332      H1348   1.110       .  S
C1332      H1349   1.110       .  S
C1332      H1350   1.111       .  S
C1334      H1345   1.111       .  S
C1334      H1346   1.110       .  S
C1334      H1347   1.105       .  S
C1336      C1337   1.404       .  A
C1336      C1341   1.507       .  S
C1337      C1338   1.407       .  A
C1337      H1342   1.084       .  S
C1338      C1339   1.419       .  A
C1339      C1340   1.404       .  A
C1339      C1343   1.507       .  S
C1340      H1344   1.084       .  S
C1341      H1351   1.111       .  S
C1341      H1352   1.110       .  S
C1341      H1353   1.110       .  S
C1343      H1354   1.111       .  S
C1343      H1355   1.106       .  S
C1343      H1356   1.110       .  S
C1357      C1358   1.400       .  A
C1357      C1362   1.402       .  A
C1357      H1367   1.085       .  S
C1358      C1359   1.410       .  A
C1358      C1363   1.479       .  S
C1359      C1360   1.402       .  A
C1359      C1364   1.506       .  S
C1360      C1361   1.405       .  A
C1360      H1365   1.084       .  S
C1361      C1362   1.417       .  A
C1362      C1366   1.508       .  S
C1363      C1368   1.411       .  A
C1363      C1372   1.400       .  A
C1364      H1380   1.110       .  S
C1364      H1381   1.110       .  S
C1364      H1382   1.111       .  S
C1366      H1377   1.110       .  S
C1366      H1378   1.110       .  S
C1366      H1379   1.107       .  S
C1368      C1369   1.405       .  A
C1368      C1373   1.506       .  S
C1369      C1370   1.403       .  A
C1369      H1374   1.084       .  S
C1370      C1371   1.414       .  A
C1371      C1372   1.402       .  A
C1371      C1375   1.507       .  S
C1372      H1376   1.084       .  S
C1373      H1383   1.111       .  S
C1373      H1384   1.110       .  S
C1373      H1385   1.110       .  S
C1375      H1386   1.111       .  S
C1375      H1387   1.110       .  S
C1375      H1388   1.108       .  S
C1389      C1390   1.400       .  A
C1389      C1394   1.402       .  A
C1389      H1399   1.084       .  S
C1390      C1391   1.410       .  A
C1390      C1395   1.475       .  S
C1391      C1392   1.400       .  A
C1391      C1396   1.507       .  S
C1392      C1393   1.403       .  A
C1392      H1397   1.084       .  S
C1393      C1394   1.417       .  A
C1394      C1398   1.507       .  S
C1395      C1400   1.408       .  A
C1395      C1404   1.399       .  A
C1396      H1412   1.110       .  S
C1396      H1413   1.110       .  S
C1396      H1414   1.111       .  S
C1398      H1409   1.110       .  S
C1398      H1410   1.110       .  S
C1398      H1411   1.107       .  S
C1400      C1401   1.402       .  A
C1400      C1405   1.506       .  S
C1401      C1402   1.405       .  A
C1401      H1406   1.084       .  S
C1402      C1403   1.417       .  A
C1403      C1404   1.401       .  A
C1403      C1407   1.508       .  S
C1404      H1408   1.085       .  S
C1405      H1415   1.111       .  S
C1405      H1416   1.110       .  S
C1405      H1417   1.110       .  S
C1407      H1418   1.110       .  S
C1407      H1419   1.105       .  S
C1407      H1420   1.111       .  S
C1421      C1422   1.401       .  A
C1421      C1426   1.402       .  A
C1421      H1431   1.084       .  S
C1422      C1423   1.410       .  A
C1422      C1427   1.478       .  S
C1423      C1424   1.402       .  A
C1423      C1428   1.506       .  S
C1424      C1425   1.403       .  A
C1424      H1429   1.084       .  S
C1425      C1426   1.415       .  A
C1426      C1430   1.508       .  S
C1427      C1432   1.410       .  A
C1427      C1436   1.400       .  A
C1428      H1444   1.110       .  S
C1428      H1445   1.110       .  S
C1428      H1446   1.111       .  S
C1430      H1441   1.111       .  S
C1430      H1442   1.107       .  S
C1430      H1443   1.110       .  S
C1432      C1433   1.402       .  A
C1432      C1437   1.506       .  S
C1433      C1434   1.404       .  A
C1433      H1438   1.084       .  S
C1434      C1435   1.417       .  A
C1435      C1436   1.403       .  A
C1435      C1439   1.507       .  S
C1436      H1440   1.084       .  S
C1437      H1447   1.111       .  S
C1437      H1448   1.110       .  S
C1437      H1449   1.110       .  S
C1439      H1450   1.111       .  S
C1439      H1451   1.110       .  S
C1439      H1452   1.107       .  S
C1453      C1454   1.401       .  A
C1453      C1458   1.404       .  A
C1453      H1463   1.084       .  S
C1454      C1455   1.411       .  A
C1454      C1459   1.482       .  S
C1455      C1456   1.404       .  A
C1455      C1460   1.506       .  S
C1456      C1457   1.404       .  A
C1456      H1461   1.084       .  S
C1457      C1458   1.417       .  A
C1458      C1462   1.508       .  S
C1459      C1464   1.410       .  A
C1459      C1468   1.401       .  A
C1460      H1476   1.110       .  S
C1460      H1477   1.110       .  S
C1460      H1478   1.111       .  S
C1462      H1473   1.110       .  S
C1462      H1474   1.110       .  S
C1462      H1475   1.107       .  S
C1464      C1465   1.405       .  A
C1464      C1469   1.506       .  S
C1465      C1466   1.405       .  A
C1465      H1470   1.084       .  S
C1466      C1467   1.416       .  A
C1467      C1468   1.403       .  A
C1467      C1471   1.507       .  S
C1468      H1472   1.085       .  S
C1469      H1479   1.111       .  S
C1469      H1480   1.110       .  S
C1469      H1481   1.110       .  S
C1471      H1482   1.110       .  S
C1471      H1483   1.106       .  S
C1471      H1484   1.111       .  S
C1485      C1486   1.401       .  A
C1485      C1490   1.402       .  A
C1485      H1495   1.085       .  S
C1486      C1487   1.410       .  A
C1486      C1491   1.481       .  S
C1487      C1488   1.404       .  A
C1487      C1492   1.506       .  S
C1488      C1489   1.405       .  A
C1488      H1493   1.084       .  S
C1489      C1490   1.417       .  A
C1490      C1494   1.508       .  S
C1491      C1496   1.410       .  A
C1491      C1500   1.401       .  A
C1492      H1508   1.110       .  S
C1492      H1509   1.110       .  S
C1492      H1510   1.111       .  S
C1494      H1505   1.111       .  S
C1494      H1506   1.110       .  S
C1494      H1507   1.107       .  S
C1496      C1497   1.402       .  A
C1496      C1501   1.507       .  S
C1497      C1498   1.404       .  A
C1497      H1502   1.084       .  S
C1498      C1499   1.417       .  A
C1499      C1500   1.404       .  A
C1499      C1503   1.507       .  S
C1500      H1504   1.084       .  S
C1501      H1511   1.111       .  S
C1501      H1512   1.110       .  S
C1501      H1513   1.110       .  S
C1503      H1514   1.111       .  S
C1503      H1515   1.106       .  S
C1503      H1516   1.110       .  S
C1517      C1518   1.401       .  A
C1517      C1522   1.402       .  A
C1517      H1527   1.085       .  S
C1518      C1519   1.411       .  A
C1518      C1523   1.485       .  S
C1519      C1520   1.407       .  A
C1519      C1524   1.506       .  S
C1520      C1521   1.406       .  A
C1520      H1525   1.084       .  S
C1521      C1522   1.417       .  A
C1522      C1526   1.508       .  S
C1523      C1528   1.410       .  A
C1523      C1532   1.401       .  A
C1524      H1540   1.110       .  S
C1524      H1541   1.110       .  S
C1524      H1542   1.111       .  S
C1526      H1537   1.111       .  S
C1526      H1538   1.110       .  S
C1526      H1539   1.107       .  S
C1528      C1529   1.405       .  A
C1528      C1533   1.506       .  S
C1529      C1530   1.405       .  A
C1529      H1534   1.084       .  S
C1530      C1531   1.419       .  A
C1531      C1532   1.405       .  A
C1531      C1535   1.508       .  S
C1532      H1536   1.085       .  S
C1533      H1543   1.111       .  S
C1533      H1544   1.110       .  S
C1533      H1545   1.110       .  S
C1535      H1546   1.111       .  S
C1535      H1547   1.105       .  S
C1535      H1548   1.110       .  S
C1549      C1550   1.400       .  A
C1549      C1554   1.403       .  A
C1549      H1559   1.085       .  S
C1550      C1551   1.410       .  A
C1550      C1555   1.482       .  S
C1551      C1552   1.405       .  A
C1551      C1556   1.506       .  S
C1552      C1553   1.406       .  A
C1552      H1557   1.084       .  S
C1553      C1554   1.419       .  A
C1554      C1558   1.508       .  S
C1555      C1560   1.410       .  A
C1555      C1564   1.400       .  A
C1556      H1572   1.110       .  S
C1556      H1573   1.110       .  S
C1556      H1574   1.111       .  S
C1558      H1569   1.111       .  S
C1558      H1570   1.110       .  S
C1558      H1571   1.107       .  S
C1560      C1561   1.404       .  A
C1560      C1565   1.507       .  S
C1561      C1562   1.405       .  A
C1561      H1566   1.084       .  S
C1562      C1563   1.419       .  A
C1563      C1564   1.405       .  A
C1563      C1567   1.508       .  S
C1564      H1568   1.084       .  S
C1565      H1575   1.111       .  S
C1565      H1576   1.110       .  S
C1565      H1577   1.110       .  S
C1567      H1578   1.111       .  S
C1567      H1579   1.105       .  S
C1567      H1580   1.110       .  S
C1581      C1582   1.401       .  A
C1581      C1586   1.403       .  A
C1581      H1591   1.084       .  S
C1582      C1583   1.411       .  A
C1582      C1587   1.481       .  S
C1583      C1584   1.404       .  A
C1583      C1588   1.506       .  S
C1584      C1585   1.404       .  A
C1584      H1589   1.084       .  S
C1585      C1586   1.417       .  A
C1586      C1590   1.508       .  S
C1587      C1592   1.410       .  A
C1587      C1596   1.400       .  A
C1588      H1604   1.110       .  S
C1588      H1605   1.110       .  S
C1588      H1606   1.111       .  S
C1590      H1601   1.110       .  S
C1590      H1602   1.111       .  S
C1590      H1603   1.107       .  S
C1592      C1593   1.405       .  A
C1592      C1597   1.506       .  S
C1593      C1594   1.405       .  A
C1593      H1598   1.084       .  S
C1594      C1595   1.417       .  A
C1595      C1596   1.402       .  A
C1595      C1599   1.508       .  S
C1596      H1600   1.084       .  S
C1597      H1607   1.111       .  S
C1597      H1608   1.110       .  S
C1597      H1609   1.109       .  S
C1599      H1610   1.110       .  S
C1599      H1611   1.106       .  S
C1599      H1612   1.111       .  S
C1613      C1614   1.402       .  A
C1613      C1618   1.404       .  A
C1613      H1623   1.084       .  S
C1614      C1615   1.411       .  A
C1614      C1619   1.481       .  S
C1615      C1616   1.403       .  A
C1615      C1620   1.506       .  S
C1616      C1617   1.403       .  A
C1616      H1621   1.084       .  S
C1617      C1618   1.414       .  A
C1618      C1622   1.507       .  S
C1619      C1624   1.411       .  A
C1619      C1628   1.401       .  A
C1620      H1636   1.110       .  S
C1620      H1637   1.110       .  S
C1620      H1638   1.111       .  S
C1622      H1633   1.111       .  S
C1622      H1634   1.111       .  S
C1622      H1635   1.108       .  S
C1624      C1625   1.403       .  A
C1624      C1629   1.507       .  S
C1625      C1626   1.403       .  A
C1625      H1630   1.084       .  S
C1626      C1627   1.417       .  A
C1627      C1628   1.405       .  A
C1627      C1631   1.507       .  S
C1628      H1632   1.084       .  S
C1629      H1639   1.111       .  S
C1629      H1640   1.110       .  S
C1629      H1641   1.110       .  S
C1631      H1642   1.110       .  S
C1631      H1643   1.108       .  S
C1631      H1644   1.111       .  S
