geometry optimzed in LAMMPS
_audit_creation_date              2020-12-01 
_audit_creation_method            'lammps2cif' 
_symmetry_space_group_name_H-M    'P1' 
_symmetry_Int_Tables_number       1 
_symmetry_cell_setting            triclinic 
loop_ 
_symmetry_equiv_pos_as_xyz 
  x,y,z 
_cell_length_a                    23.71829928 
_cell_length_b                    23.78289343882371 
_cell_length_c                    23.79659713435682 
_cell_angle_alpha                 89.9882588297355 
_cell_angle_beta                  89.92641313138844 
_cell_angle_gamma                 89.8926051507026 
loop_ 
_atom_site_label 
_atom_site_type_symbol 
_atom_site_fract_x 
_atom_site_fract_y 
_atom_site_fract_z 
_atom_site_charge 
O1          O  0.19837369  0.44882407  0.13493566    -0.77500
C2          C  0.34137319  0.08749078  0.15481104     0.83600
O3          O  0.34802578  0.42198873  0.23546125    -0.78600
O4          O  0.30773885  0.13784028  0.30783715    -0.80100
O5          O  0.13058027  0.04565560  0.31950893    -0.79900
O6          O  0.12706083  0.45496506  0.19461018    -0.78500
Zn7        Zn  0.25727018  0.49904784  0.16728380     1.55700
O8          O  0.19433579  0.11183528  0.32672518    -0.79900
Cd9        Cd  0.16543465  0.50101445  0.25572495     1.59700
Cd10       Cd  0.29627215  0.47695340  0.29555437     1.59600
O11         O  0.15336104  0.43712257  0.30188017    -0.79900
O12         O  0.24630892  0.51802023  0.24511611    -1.90400
Cd13       Cd  0.24883171  0.10968643  0.25015830     1.59900
O14         O  0.23346686  0.42783405  0.34880653    -0.79900
O15         O  0.32811694  0.10831030  0.20156653    -0.78500
C16         C  0.34461956  0.41503862  0.18100657     0.84000
C17         C  0.15158532  0.43077809  0.15361712     0.83700
O18         O  0.30780365  0.05332726  0.13027032    -0.77500
C19         C  0.15231706  0.08588874  0.34697992     0.84500
O20         O  0.30945261  0.44275788  0.15394880    -0.77600
C21         C  0.17991481  0.41654776  0.34193660     0.84600
C22         C  0.34046220  0.10876960  0.33686756     0.85000
O23         O  0.33887668  0.05315828  0.33493341    -0.80000
O24         O  0.44860714  0.13087991  0.19739221    -0.77500
C25         C  0.08563448  0.15186862  0.34489848     0.83600
O26         O  0.42806990  0.23478265  0.34616060    -0.78600
O27         O  0.13898051  0.30583143  0.30816688    -0.80100
O28         O  0.05167677  0.31312696  0.12966617    -0.79900
O29         O  0.45438448  0.19136786  0.12713488    -0.78500
Zn30       Zn  0.50235940  0.16329590  0.25398336     1.55700
O31         O  0.11158063  0.32571636  0.19883075    -0.79900
Cd32       Cd  0.50406168  0.25089028  0.16404968     1.59700
Cd33       Cd  0.48022065  0.29297516  0.29360592     1.59600
O34         O  0.44031680  0.29823721  0.15275126    -0.79900
O35         O  0.52067985  0.24111877  0.24454002    -1.90400
Cd36       Cd  0.11150427  0.24700327  0.25024531     1.59900
O37         O  0.42908604  0.34408332  0.23306008    -0.79900
O38         O  0.10919715  0.19693980  0.32940757    -0.78500
C39         C  0.42006843  0.18093120  0.34066639     0.84000
C40         C  0.42945933  0.15082724  0.15161138     0.83700
O41         O  0.05052330  0.12766729  0.31219026    -0.77500
C42         C  0.08833296  0.34348618  0.15445622     0.84500
O43         O  0.44546731  0.15415652  0.30381328    -0.77600
C44         C  0.41799914  0.33700503  0.17990475     0.84600
C45         C  0.10915762  0.33712173  0.33810159     0.85000
O46         O  0.05370438  0.33529946  0.33547934    -0.80000
O47         O  0.19855767  0.32059272  0.11650213    -0.77500
C48         C  0.34036250  0.15668389  0.09123191     0.83600
O49         O  0.33855305  0.33634917  0.05081883    -0.78600
O50         O  0.30641058  0.15232859  0.43906640    -0.80100
O51         O  0.12609322  0.19313748  0.45574814    -0.79900
O52         O  0.13579156  0.31946856  0.04792630    -0.78500
Zn53       Zn  0.25331176  0.25434433  0.09841439     1.55700
O54         O  0.19497770  0.13033564  0.45056736    -0.79900
Cd55       Cd  0.16548967  0.25482579  0.50183123     1.59700
Cd56       Cd  0.29595177  0.29499953  0.47654914     1.59600
O57         O  0.15277192  0.30195119  0.43889461    -0.79900
O58         O  0.24560313  0.24549264  0.01755097    -1.90400
Cd59       Cd  0.25539182  0.16650085  0.49954743     1.59900
O60         O  0.23358701  0.34731076  0.42704053    -0.79900
O61         O  0.31622768  0.13594132  0.04844983    -0.78500
C62         C  0.33869625  0.33626044  0.10629467     0.84000
C63         C  0.15709038  0.34368627  0.09043830     0.83700
O64         O  0.31786736  0.19825112  0.11750856    -0.76500
C65         C  0.14863405  0.15026753  0.43263634     0.84500
O66         O  0.30555856  0.30489672  0.13223959    -0.77600
C67         C  0.17974389  0.34114550  0.41712758     0.84600
C68         C  0.34446422  0.17992566  0.41594663     0.85000
O69         O  0.34893741  0.23393006  0.42525227    -0.80000
O70         O  0.44798623  0.37418744  0.06523927    -0.77500
C71         C  0.09167106  0.40617988  0.40736263     0.83600
O72         O  0.07866759  0.47471228  0.08191385    -0.78600
O73         O  0.04728548  0.04900399  0.39258345    -0.80100
O74         O  0.38919205  0.07279781  0.44711905    -0.79900
O75         O  0.38892758  0.44489386  0.07352571    -0.78500
Zn76       Zn  0.99682988  0.40285843  0.99786793     1.55700
O77         O  0.44680554  0.06335060  0.37570857    -0.79900
Cd78       Cd  0.38942830  0.98915020  0.99095672     1.59700
Cd79       Cd  0.02722543  0.02930471  0.03232204     1.59600
O80         O  0.38518681  0.05040584  0.05076080    -0.79900
O81         O  0.97942698  0.48120950  0.98571972    -1.90400
Cd82       Cd  0.99330929  0.99254831  0.40444418     1.59900
O83         O  0.46972715  0.07802218  0.07960072    -0.79900
O84         O  0.06670878  0.44689515  0.38233149    -0.78500
C85         C  0.08149286  0.42052815  0.08220754     0.84000
C86         C  0.41176215  0.40182813  0.09474355     0.83700
O87         O  0.06592940  0.38089832  0.44765679    -0.77500
C88         C  0.41171270  0.09359189  0.40372678     0.84500
O89         O  0.05109750  0.39208948  0.05081346    -0.77600
C90         C  0.41539930  0.08073708  0.08103994     0.84600
C91         C  0.07744068  0.07968570  0.42188584     0.85000
O92         O  0.07576529  0.07836000  0.47603980    -0.80000
C93         C  0.37921167  0.37341401  0.14325953    -0.01500
C94         C  0.38070244  0.14334734  0.37551906    -0.01500
C95         C  0.14252991  0.37690015  0.37772534    -0.01500
C96         C  0.11605358  0.11730456  0.38920953    -0.01500
C97         C  0.38380356  0.11949871  0.12015976    -0.01500
C98         C  0.12010347  0.38699485  0.12044494    -0.01500
O99         O  0.19837366  0.44882409  0.63493564    -0.77500
C100        C  0.34137320  0.08749083  0.65481108     0.83600
O101        O  0.34802576  0.42198875  0.73546124    -0.78600
O102        O  0.30773883  0.13784029  0.80783715    -0.80100
O103        O  0.13058027  0.04565562  0.81950895    -0.79900
O104        O  0.12706082  0.45496503  0.69461019    -0.78500
Zn105      Zn  0.25727015  0.49904784  0.66728379     1.55700
O106        O  0.19433579  0.11183530  0.82672517    -0.79900
Cd107      Cd  0.16543462  0.50101446  0.75572495     1.59700
Cd108      Cd  0.29627212  0.47695340  0.79555436     1.59600
O109        O  0.15336100  0.43712261  0.80188021    -0.79900
O110        O  0.24630889  0.51802023  0.74511610    -1.90400
Cd111      Cd  0.24883169  0.10968644  0.75015830     1.59900
O112        O  0.23346684  0.42783405  0.84880652    -0.79900
O113        O  0.32811692  0.10831031  0.70156650    -0.78500
C114        C  0.34461953  0.41503863  0.68100656     0.84000
C115        C  0.15158530  0.43077808  0.65361711     0.83700
O116        O  0.30780364  0.05332725  0.63027031    -0.77500
C117        C  0.15231702  0.08588868  0.84697991     0.84500
O118        O  0.30945257  0.44275787  0.65394880    -0.77600
C119        C  0.17991479  0.41654778  0.84193662     0.84600
C120        C  0.34046219  0.10876961  0.83686756     0.85000
O121        O  0.33887666  0.05315828  0.83493341    -0.80000
O122        O  0.44860714  0.13087992  0.69739219    -0.77500
C123        C  0.08563441  0.15186858  0.84489848     0.83600
O124        O  0.42806989  0.23478265  0.84616060    -0.78600
O125        O  0.13898049  0.30583146  0.80816688    -0.80100
O126        O  0.05167670  0.31312701  0.62966619    -0.79900
O127        O  0.45438446  0.19136787  0.62713488    -0.78500
Zn128      Zn  0.50235939  0.16329591  0.75398336     1.55700
O129        O  0.11158068  0.32571629  0.69883069    -0.79900
Cd130      Cd  0.50406166  0.25089030  0.66404969     1.59700
Cd131      Cd  0.48022064  0.29297517  0.79360592     1.59600
O132        O  0.44031677  0.29823722  0.65275127    -0.79900
O133        O  0.52067985  0.24111878  0.74454003    -1.90400
Cd134      Cd  0.11150427  0.24700325  0.75024534     1.59900
O135        O  0.42908603  0.34408334  0.73306008    -0.79900
O136        O  0.10919715  0.19693983  0.82940760    -0.78500
C137        C  0.42006842  0.18093120  0.84066638     0.84000
C138        C  0.42945935  0.15082726  0.65161140     0.83700
O139        O  0.05052331  0.12766731  0.81219028    -0.77500
C140        C  0.08833296  0.34348617  0.65445622     0.84500
O141        O  0.44546729  0.15415653  0.80381327    -0.77600
C142        C  0.41799913  0.33700504  0.67990475     0.84600
C143        C  0.10915759  0.33712175  0.83810160     0.85000
O144        O  0.05370436  0.33529948  0.83547936    -0.80000
O145        O  0.19855768  0.32059274  0.61650210    -0.77500
C146        C  0.34036251  0.15668392  0.59123194     0.83600
O147        O  0.33855305  0.33634919  0.55081883    -0.78600
O148        O  0.30641058  0.15232859  0.93906641    -0.80100
O149        O  0.12609322  0.19313747  0.95574817    -0.79900
O150        O  0.13579153  0.31946852  0.54792631    -0.78500
Zn151      Zn  0.25331176  0.25434434  0.59841438     1.55700
O152        O  0.19497771  0.13033564  0.95056737    -0.79900
Cd153      Cd  0.16548967  0.25482580  0.00183124     1.59700
Cd154      Cd  0.29595176  0.29499954  0.97654914     1.59600
O155        O  0.15277191  0.30195117  0.93889460    -0.79900
O156        O  0.24560313  0.24549264  0.51755097    -1.90400
Cd157      Cd  0.25539182  0.16650085  0.99954744     1.59900
O158        O  0.23358699  0.34731077  0.92704055    -0.79900
O159        O  0.31622767  0.13594130  0.54844981    -0.78500
C160        C  0.33869625  0.33626046  0.60629466     0.84000
C161        C  0.15709037  0.34368626  0.59043828     0.83700
O162        O  0.31786737  0.19825112  0.61750853    -0.76500
C163        C  0.14863402  0.15026751  0.93263633     0.84500
O164        O  0.30555856  0.30489673  0.63223958    -0.77600
C165        C  0.17974388  0.34114551  0.91712759     0.84600
C166        C  0.34446421  0.17992566  0.91594663     0.85000
O167        O  0.34893739  0.23393007  0.92525226    -0.80000
O168        O  0.44798620  0.37418745  0.56523924    -0.77500
C169        C  0.09167104  0.40617989  0.90736265     0.83600
O170        O  0.07866760  0.47471227  0.58191383    -0.78600
O171        O  0.04728549  0.04900401  0.89258348    -0.80100
O172        O  0.38919204  0.07279781  0.94711904    -0.79900
O173        O  0.38892761  0.44489393  0.57352574    -0.78500
Zn174      Zn  0.99682989  0.40285842  0.49786790     1.55700
O175        O  0.44680553  0.06335061  0.87570856    -0.79900
Cd176      Cd  0.38942831  0.98915019  0.49095672     1.59700
Cd177      Cd  0.02722544  0.02930471  0.53232203     1.59600
O178        O  0.38518679  0.05040582  0.55076078    -0.79900
O179        O  0.97942702  0.48120948  0.48571969    -1.90400
Cd180      Cd  0.99330928  0.99254832  0.90444419     1.59900
O181        O  0.46972713  0.07802218  0.57960071    -0.79900
O182        O  0.06670876  0.44689516  0.88233151    -0.78500
C183        C  0.08149285  0.42052814  0.58220752     0.84000
C184        C  0.41176215  0.40182816  0.59474355     0.83700
O185        O  0.06592939  0.38089833  0.94765682    -0.77500
C186        C  0.41171270  0.09359190  0.90372677     0.84500
O187        O  0.05109750  0.39208947  0.55081345    -0.77600
C188        C  0.41539934  0.08073711  0.58103997     0.84600
C189        C  0.07744064  0.07968566  0.92188580     0.85000
O190        O  0.07576530  0.07836001  0.97603984    -0.80000
C191        C  0.37921166  0.37341403  0.64325952    -0.01500
C192        C  0.38070243  0.14334734  0.87551906    -0.01500
C193        C  0.14252989  0.37690017  0.87772535    -0.01500
C194        C  0.11605361  0.11730461  0.88920956    -0.01500
C195        C  0.38380354  0.11949868  0.62015971    -0.01500
C196        C  0.12010347  0.38699484  0.62044493    -0.01500
O197        O  0.19837368  0.94882409  0.13493566    -0.77500
C198        C  0.34137321  0.58749078  0.15481102     0.83600
O199        O  0.34802578  0.92198873  0.23546126    -0.78600
O200        O  0.30773887  0.63784028  0.30783716    -0.80100
O201        O  0.13058031  0.54565563  0.31950894    -0.79900
O202        O  0.12706082  0.95496506  0.19461019    -0.78500
Zn203      Zn  0.25727017  0.99904783  0.16728381     1.55700
O204        O  0.19433583  0.61183530  0.32672516    -0.79900
Cd205      Cd  0.16543464  0.00101444  0.25572496     1.59700
Cd206      Cd  0.29627214  0.97695340  0.29555437     1.59600
O207        O  0.15336103  0.93712257  0.30188019    -0.79900
O208        O  0.24630890  0.01802022  0.24511612    -1.90400
Cd209      Cd  0.24883175  0.60968643  0.25015830     1.59900
O210        O  0.23346686  0.92783406  0.34880654    -0.79900
O211        O  0.32811698  0.60831030  0.20156654    -0.78500
C212        C  0.34461955  0.91503862  0.18100658     0.84000
C213        C  0.15158531  0.93077810  0.15361711     0.83700
O214        O  0.30780367  0.55332729  0.13027032    -0.77500
C215        C  0.15231703  0.58588865  0.34697990     0.84500
O216        O  0.30945260  0.94275787  0.15394881    -0.77600
C217        C  0.17991481  0.91654777  0.34193662     0.84600
C218        C  0.34046222  0.60876960  0.33686759     0.85000
O219        O  0.33887669  0.55315828  0.33493343    -0.80000
O220        O  0.44860713  0.63087996  0.19739223    -0.77500
C221        C  0.08563442  0.65186856  0.34489845     0.83600
O222        O  0.42806991  0.73478265  0.34616062    -0.78600
O223        O  0.13898052  0.80583145  0.30816689    -0.80100
O224        O  0.05167675  0.81312699  0.12966619    -0.79900
O225        O  0.45438453  0.69136786  0.12713487    -0.78500
Zn226      Zn  0.50235941  0.66329592  0.25398338     1.55700
O227        O  0.11158065  0.82571637  0.19883074    -0.79900
Cd228      Cd  0.50406169  0.75089030  0.16404970     1.59700
Cd229      Cd  0.48022066  0.79297517  0.29360593     1.59600
O230        O  0.44031679  0.79823720  0.15275128    -0.79900
O231        O  0.52067988  0.74111879  0.24454004    -1.90400
Cd232      Cd  0.11150429  0.74700329  0.25024531     1.59900
O233        O  0.42908605  0.84408333  0.23306009    -0.79900
O234        O  0.10919722  0.69693981  0.32940753    -0.78500
C235        C  0.42006845  0.68093120  0.34066642     0.84000
C236        C  0.42945935  0.65082726  0.15161137     0.83700
O237        O  0.05052333  0.62766732  0.31219028    -0.77500
C238        C  0.08833295  0.84348620  0.15445622     0.84500
O239        O  0.44546732  0.65415653  0.30381330    -0.77600
C240        C  0.41799914  0.83700503  0.17990477     0.84600
C241        C  0.10915762  0.83712174  0.33810161     0.85000
O242        O  0.05370439  0.83529947  0.33547937    -0.80000
O243        O  0.19855767  0.82059274  0.11650212    -0.77500
C244        C  0.34036251  0.65668390  0.09123189     0.83600
O245        O  0.33855306  0.83634916  0.05081885    -0.78600
O246        O  0.30641059  0.65232859  0.43906642    -0.80100
O247        O  0.12609324  0.69313748  0.45574814    -0.79900
O248        O  0.13579155  0.81946855  0.04792631    -0.78500
Zn249      Zn  0.25331176  0.75434434  0.09841440     1.55700
O250        O  0.19497772  0.63033564  0.45056736    -0.79900
Cd251      Cd  0.16548968  0.75482579  0.50183124     1.59700
Cd252      Cd  0.29595177  0.79499953  0.47654915     1.59600
O253        O  0.15277193  0.80195119  0.43889463    -0.79900
O254        O  0.24560313  0.74549265  0.01755098    -1.90400
Cd255      Cd  0.25539183  0.66650085  0.49954744     1.59900
O256        O  0.23358702  0.84731076  0.42704055    -0.79900
O257        O  0.31622772  0.63594135  0.04844983    -0.78500
C258        C  0.33869625  0.83626044  0.10629468     0.84000
C259        C  0.15709037  0.84368628  0.09043829     0.83700
O260        O  0.31786736  0.69825114  0.11750857    -0.76500
C261        C  0.14863403  0.65026750  0.43263630     0.84500
O262        O  0.30555855  0.80489672  0.13223960    -0.77600
C263        C  0.17974390  0.84114551  0.41712760     0.84600
C264        C  0.34446423  0.67992566  0.41594665     0.85000
O265        O  0.34893741  0.73393006  0.42525228    -0.80000
O266        O  0.44798630  0.87418747  0.06523934    -0.77500
C267        C  0.09167106  0.90617989  0.40736265     0.83600
O268        O  0.07866758  0.97471228  0.08191385    -0.78600
O269        O  0.04728552  0.54900402  0.39258347    -0.80100
O270        O  0.38919212  0.57279786  0.44711914    -0.79900
O271        O  0.38892750  0.94489378  0.07352563    -0.78500
Zn272      Zn  0.99682988  0.90285841  0.99786792     1.55700
O273        O  0.44680551  0.56335058  0.37570859    -0.79900
Cd274      Cd  0.38942833  0.48915019  0.99095675     1.59700
Cd275      Cd  0.02722545  0.52930472  0.03232205     1.59600
O276        O  0.38518684  0.55040587  0.05076080    -0.79900
O277        O  0.97942697  0.98120949  0.98571971    -1.90400
Cd278      Cd  0.99330931  0.49254832  0.40444418     1.59900
O279        O  0.46972718  0.57802220  0.07960073    -0.79900
O280        O  0.06670878  0.94689516  0.38233150    -0.78500
C281        C  0.08149285  0.92052815  0.08220752     0.84000
C282        C  0.41176214  0.90182813  0.09474356     0.83700
O283        O  0.06592940  0.88089833  0.44765682    -0.77500
C284        C  0.41171272  0.59359190  0.40372682     0.84500
O285        O  0.05109752  0.89208948  0.05081345    -0.77600
C286        C  0.41539930  0.58073709  0.08103992     0.84600
C287        C  0.07744065  0.57968564  0.42188575     0.85000
O288        O  0.07576532  0.57836001  0.47603983    -0.80000
C289        C  0.37921167  0.87341401  0.14325954    -0.01500
C290        C  0.38070245  0.64334734  0.37551909    -0.01500
C291        C  0.14252991  0.87690016  0.37772536    -0.01500
C292        C  0.11605366  0.61730463  0.38920954    -0.01500
C293        C  0.38380360  0.61949875  0.12015977    -0.01500
C294        C  0.12010347  0.88699486  0.12044494    -0.01500
O295        O  0.19837366  0.94882409  0.63493564    -0.77500
C296        C  0.34137319  0.58749077  0.65481101     0.83600
O297        O  0.34802577  0.92198874  0.73546126    -0.78600
O298        O  0.30773885  0.63784029  0.80783714    -0.80100
O299        O  0.13058027  0.54565565  0.81950893    -0.79900
O300        O  0.12706082  0.95496503  0.69461019    -0.78500
Zn301      Zn  0.25727015  0.99904784  0.66728380     1.55700
O302        O  0.19433582  0.61183529  0.82672519    -0.79900
Cd303      Cd  0.16543462  0.00101445  0.75572495     1.59700
Cd304      Cd  0.29627212  0.97695341  0.79555436     1.59600
O305        O  0.15336102  0.93712259  0.80188020    -0.79900
O306        O  0.24630889  0.01802023  0.74511611    -1.90400
Cd307      Cd  0.24883170  0.60968644  0.75015830     1.59900
O308        O  0.23346685  0.92783406  0.84880653    -0.79900
O309        O  0.32811691  0.60831034  0.70156649    -0.78500
C310        C  0.34461954  0.91503862  0.68100658     0.84000
C311        C  0.15158531  0.93077809  0.65361711     0.83700
O312        O  0.30780367  0.55332725  0.63027031    -0.77500
C313        C  0.15231702  0.58588866  0.84697992     0.84500
O314        O  0.30945258  0.94275787  0.65394881    -0.77600
C315        C  0.17991480  0.91654778  0.84193662     0.84600
C316        C  0.34046219  0.60876960  0.83686756     0.85000
O317        O  0.33887666  0.55315828  0.83493341    -0.80000
O318        O  0.44860715  0.63087991  0.69739220    -0.77500
C319        C  0.08563441  0.65186857  0.84489848     0.83600
O320        O  0.42806990  0.73478265  0.84616061    -0.78600
O321        O  0.13898051  0.80583146  0.80816688    -0.80100
O322        O  0.05167670  0.81312702  0.62966619    -0.79900
O323        O  0.45438448  0.69136787  0.62713487    -0.78500
Zn324      Zn  0.50235940  0.66329590  0.75398337     1.55700
O325        O  0.11158069  0.82571629  0.69883068    -0.79900
Cd326      Cd  0.50406167  0.75089030  0.66404969     1.59700
Cd327      Cd  0.48022066  0.79297516  0.79360593     1.59600
O328        O  0.44031676  0.79823719  0.65275129    -0.79900
O329        O  0.52067988  0.74111878  0.74454003    -1.90400
Cd330      Cd  0.11150430  0.74700326  0.75024532     1.59900
O331        O  0.42908605  0.84408333  0.73306009    -0.79900
O332        O  0.10919722  0.69693980  0.82940755    -0.78500
C333        C  0.42006842  0.68093120  0.84066639     0.84000
C334        C  0.42945934  0.65082723  0.65161136     0.83700
O335        O  0.05052329  0.62766732  0.81219033    -0.77500
C336        C  0.08833297  0.84348619  0.65445622     0.84500
O337        O  0.44546728  0.65415652  0.80381326    -0.77600
C338        C  0.41799913  0.83700502  0.67990477     0.84600
C339        C  0.10915761  0.83712174  0.83810161     0.85000
O340        O  0.05370438  0.83529947  0.83547936    -0.80000
O341        O  0.19855769  0.82059275  0.61650208    -0.77500
C342        C  0.34036251  0.65668387  0.59123187     0.83600
O343        O  0.33855305  0.83634916  0.55081885    -0.78600
O344        O  0.30641057  0.65232860  0.93906640    -0.80100
O345        O  0.12609325  0.69313750  0.95574815    -0.79900
O346        O  0.13579152  0.81946851  0.54792632    -0.78500
Zn347      Zn  0.25331176  0.75434433  0.59841439     1.55700
O348        O  0.19497771  0.63033563  0.95056740    -0.79900
Cd349      Cd  0.16548968  0.75482581  0.00183124     1.59700
Cd350      Cd  0.29595177  0.79499954  0.97654915     1.59600
O351        O  0.15277192  0.80195119  0.93889462    -0.79900
O352        O  0.24560313  0.74549264  0.51755098    -1.90400
Cd353      Cd  0.25539183  0.66650086  0.99954745     1.59900
O354        O  0.23358701  0.84731077  0.92704054    -0.79900
O355        O  0.31622767  0.63594130  0.54844983    -0.78500
C356        C  0.33869625  0.83626044  0.60629469     0.84000
C357        C  0.15709038  0.84368627  0.59043829     0.83700
O358        O  0.31786739  0.69825114  0.61750852    -0.76500
C359        C  0.14863403  0.65026750  0.93263633     0.84500
O360        O  0.30555855  0.80489671  0.63223961    -0.77600
C361        C  0.17974389  0.84114552  0.91712760     0.84600
C362        C  0.34446421  0.67992566  0.91594663     0.85000
O363        O  0.34893740  0.73393007  0.92525227    -0.80000
O364        O  0.44798628  0.87418746  0.56523933    -0.77500
C365        C  0.09167105  0.90617989  0.90736265     0.83600
O366        O  0.07866758  0.97471227  0.58191384    -0.78600
O367        O  0.04728552  0.54900401  0.89258350    -0.80100
O368        O  0.38919202  0.57279778  0.94711903    -0.79900
O369        O  0.38892750  0.94489379  0.57352564    -0.78500
Zn370      Zn  0.99682987  0.90285841  0.49786792     1.55700
O371        O  0.44680556  0.56335063  0.87570859    -0.79900
Cd372      Cd  0.38942837  0.48915013  0.49095668     1.59700
Cd373      Cd  0.02722546  0.52930471  0.53232202     1.59600
O374        O  0.38518682  0.55040583  0.55076076    -0.79900
O375        O  0.97942697  0.98120948  0.48571970    -1.90400
Cd376      Cd  0.99330929  0.49254833  0.90444420     1.59900
O377        O  0.46972716  0.57802217  0.57960070    -0.79900
O378        O  0.06670876  0.94689515  0.88233150    -0.78500
C379        C  0.08149286  0.92052816  0.58220752     0.84000
C380        C  0.41176213  0.90182812  0.59474356     0.83700
O381        O  0.06592940  0.88089834  0.94765682    -0.77500
C382        C  0.41171269  0.59359190  0.90372678     0.84500
O383        O  0.05109751  0.89208947  0.55081343    -0.77600
C384        C  0.41539929  0.58073706  0.58103990     0.84600
C385        C  0.07744065  0.57968565  0.92188579     0.85000
O386        O  0.07576532  0.57836002  0.97603986    -0.80000
C387        C  0.37921166  0.87341401  0.64325954    -0.01500
C388        C  0.38070243  0.64334734  0.87551906    -0.01500
C389        C  0.14252990  0.87690017  0.87772536    -0.01500
C390        C  0.11605364  0.61730462  0.88920957    -0.01500
C391        C  0.38380358  0.61949871  0.62015975    -0.01500
C392        C  0.12010346  0.88699484  0.62044491    -0.01500
O393        O  0.69837368  0.44882407  0.13493566    -0.77500
C394        C  0.84137320  0.08749078  0.15481104     0.83600
O395        O  0.84802578  0.42198873  0.23546125    -0.78600
O396        O  0.80773885  0.13784028  0.30783715    -0.80100
O397        O  0.63058027  0.04565560  0.31950893    -0.79900
O398        O  0.62706083  0.45496506  0.19461019    -0.78500
Zn399      Zn  0.75727017  0.49904784  0.16728380     1.55700
O400        O  0.69433579  0.11183528  0.32672518    -0.79900
Cd401      Cd  0.66543465  0.50101445  0.25572495     1.59700
Cd402      Cd  0.79627214  0.47695340  0.29555437     1.59600
O403        O  0.65336103  0.43712257  0.30188018    -0.79900
O404        O  0.74630892  0.51802023  0.24511611    -1.90400
Cd405      Cd  0.74883172  0.10968643  0.25015831     1.59900
O406        O  0.73346686  0.42783405  0.34880653    -0.79900
O407        O  0.82811694  0.10831031  0.20156653    -0.78500
C408        C  0.84461955  0.41503862  0.18100657     0.84000
C409        C  0.65158531  0.43077809  0.15361712     0.83700
O410        O  0.80780366  0.05332726  0.13027032    -0.77500
C411        C  0.65231707  0.08588875  0.34697992     0.84500
O412        O  0.80945259  0.44275787  0.15394881    -0.77600
C413        C  0.67991481  0.41654777  0.34193660     0.84600
C414        C  0.84046221  0.10876960  0.33686757     0.85000
O415        O  0.83887668  0.05315828  0.33493342    -0.80000
O416        O  0.94860714  0.13087992  0.19739220    -0.77500
C417        C  0.58563448  0.15186862  0.34489848     0.83600
O418        O  0.92806990  0.23478265  0.34616060    -0.78600
O419        O  0.63898051  0.30583144  0.30816688    -0.80100
O420        O  0.55167676  0.31312697  0.12966618    -0.79900
O421        O  0.95438447  0.19136787  0.12713488    -0.78500
Zn422      Zn  0.00235940  0.16329590  0.25398336     1.55700
O423        O  0.61158063  0.32571636  0.19883075    -0.79900
Cd424      Cd  0.00406168  0.25089028  0.16404968     1.59700
Cd425      Cd  0.98022065  0.29297516  0.29360592     1.59600
O426        O  0.94031680  0.29823722  0.15275126    -0.79900
O427        O  0.02067985  0.24111877  0.24454002    -1.90400
Cd428      Cd  0.61150427  0.24700327  0.25024531     1.59900
O429        O  0.92908603  0.34408332  0.23306009    -0.79900
O430        O  0.60919715  0.19693980  0.32940757    -0.78500
C431        C  0.92006843  0.18093119  0.34066639     0.84000
C432        C  0.92945933  0.15082724  0.15161138     0.83700
O433        O  0.55052330  0.12766728  0.31219027    -0.77500
C434        C  0.58833296  0.34348618  0.15445623     0.84500
O435        O  0.94546731  0.15415652  0.30381328    -0.77600
C436        C  0.91799914  0.33700503  0.17990475     0.84600
C437        C  0.60915762  0.33712173  0.33810159     0.85000
O438        O  0.55370438  0.33529946  0.33547934    -0.80000
O439        O  0.69855766  0.32059272  0.11650213    -0.77500
C440        C  0.84036250  0.15668389  0.09123191     0.83600
O441        O  0.83855304  0.33634916  0.05081884    -0.78600
O442        O  0.80641058  0.15232859  0.43906640    -0.80100
O443        O  0.62609322  0.19313747  0.45574814    -0.79900
O444        O  0.63579155  0.31946855  0.04792631    -0.78500
Zn445      Zn  0.75331175  0.25434433  0.09841440     1.55700
O446        O  0.69497770  0.13033564  0.45056736    -0.79900
Cd447      Cd  0.66548967  0.25482579  0.50183123     1.59700
Cd448      Cd  0.79595177  0.29499954  0.47654914     1.59600
O449        O  0.65277192  0.30195118  0.43889460    -0.79900
O450        O  0.74560313  0.24549264  0.01755098    -1.90400
Cd451      Cd  0.75539182  0.16650085  0.49954743     1.59900
O452        O  0.73358701  0.34731076  0.42704053    -0.79900
O453        O  0.81622768  0.13594132  0.04844982    -0.78500
C454        C  0.83869625  0.33626044  0.10629467     0.84000
C455        C  0.65709038  0.34368627  0.09043830     0.83700
O456        O  0.81786736  0.19825113  0.11750856    -0.76500
C457        C  0.64863405  0.15026753  0.43263635     0.84500
O458        O  0.80555855  0.30489672  0.13223959    -0.77600
C459        C  0.67974389  0.34114550  0.41712758     0.84600
C460        C  0.84446423  0.17992566  0.41594663     0.85000
O461        O  0.84893741  0.23393006  0.42525227    -0.80000
O462        O  0.94798625  0.37418745  0.06523929    -0.77500
C463        C  0.59167106  0.40617988  0.40736263     0.83600
O464        O  0.57866759  0.47471228  0.08191385    -0.78600
O465        O  0.54728548  0.04900398  0.39258344    -0.80100
O466        O  0.88919207  0.07279782  0.44711907    -0.79900
O467        O  0.88892754  0.44489383  0.07352568    -0.78500
Zn468      Zn  0.49682988  0.40285843  0.99786792     1.55700
O469        O  0.94680553  0.06335060  0.37570857    -0.79900
Cd470      Cd  0.88942831  0.98915019  0.99095672     1.59700
Cd471      Cd  0.52722543  0.02930471  0.03232204     1.59600
O472        O  0.88518681  0.05040584  0.05076080    -0.79900
O473        O  0.47942698  0.48120950  0.98571972    -1.90400
Cd474      Cd  0.49330929  0.99254831  0.40444418     1.59900
O475        O  0.96972715  0.07802219  0.07960072    -0.79900
O476        O  0.56670878  0.44689515  0.38233149    -0.78500
C477        C  0.58149286  0.42052816  0.08220754     0.84000
C478        C  0.91176214  0.40182813  0.09474355     0.83700
O479        O  0.56592940  0.38089832  0.44765679    -0.77500
C480        C  0.91171271  0.09359190  0.40372679     0.84500
O481        O  0.55109750  0.39208948  0.05081346    -0.77600
C482        C  0.91539930  0.08073708  0.08103994     0.84600
C483        C  0.57744069  0.07968570  0.42188584     0.85000
O484        O  0.57576529  0.07836000  0.47603980    -0.80000
C485        C  0.87921166  0.37341400  0.14325953    -0.01500
C486        C  0.88070244  0.14334734  0.37551907    -0.01500
C487        C  0.64252991  0.37690015  0.37772534    -0.01500
C488        C  0.61605357  0.11730456  0.38920953    -0.01500
C489        C  0.88380357  0.11949871  0.12015976    -0.01500
C490        C  0.62010346  0.38699484  0.12044494    -0.01500
O491        O  0.69837366  0.44882408  0.63493564    -0.77500
C492        C  0.84137321  0.08749083  0.65481108     0.83600
O493        O  0.84802576  0.42198875  0.73546124    -0.78600
O494        O  0.80773884  0.13784029  0.80783714    -0.80100
O495        O  0.63058025  0.04565564  0.81950892    -0.79900
O496        O  0.62706082  0.45496502  0.69461019    -0.78500
Zn497      Zn  0.75727015  0.49904784  0.66728379     1.55700
O498        O  0.69433581  0.11183528  0.82672520    -0.79900
Cd499      Cd  0.66543462  0.50101445  0.75572495     1.59700
Cd500      Cd  0.79627212  0.47695340  0.79555436     1.59600
O501        O  0.65336100  0.43712260  0.80188021    -0.79900
O502        O  0.74630889  0.51802023  0.74511610    -1.90400
Cd503      Cd  0.74883169  0.10968643  0.75015831     1.59900
O504        O  0.73346684  0.42783405  0.84880652    -0.79900
O505        O  0.82811691  0.10831033  0.70156649    -0.78500
C506        C  0.84461954  0.41503863  0.68100656     0.84000
C507        C  0.65158530  0.43077808  0.65361711     0.83700
O508        O  0.80780366  0.05332724  0.63027031    -0.77500
C509        C  0.65231702  0.08588870  0.84697992     0.84500
O510        O  0.80945257  0.44275788  0.65394880    -0.77600
C511        C  0.67991479  0.41654778  0.84193662     0.84600
C512        C  0.84046219  0.10876961  0.83686756     0.85000
O513        O  0.83887666  0.05315828  0.83493341    -0.80000
O514        O  0.94860713  0.13087992  0.69739219    -0.77500
C515        C  0.58563443  0.15186859  0.84489849     0.83600
O516        O  0.92806988  0.23478265  0.84616059    -0.78600
O517        O  0.63898049  0.30583146  0.80816688    -0.80100
O518        O  0.55167671  0.31312701  0.62966619    -0.79900
O519        O  0.95438446  0.19136787  0.62713488    -0.78500
Zn520      Zn  0.00235940  0.16329591  0.75398336     1.55700
O521        O  0.61158068  0.32571629  0.69883069    -0.79900
Cd522      Cd  0.00406166  0.25089030  0.66404969     1.59700
Cd523      Cd  0.98022064  0.29297518  0.79360592     1.59600
O524        O  0.94031676  0.29823722  0.65275126    -0.79900
O525        O  0.02067985  0.24111879  0.74454003    -1.90400
Cd526      Cd  0.61150428  0.24700326  0.75024533     1.59900
O527        O  0.92908604  0.34408335  0.73306008    -0.79900
O528        O  0.60919717  0.19693981  0.82940758    -0.78500
C529        C  0.92006842  0.18093120  0.84066639     0.84000
C530        C  0.92945935  0.15082726  0.65161140     0.83700
O531        O  0.55052329  0.12766731  0.81219030    -0.77500
C532        C  0.58833296  0.34348617  0.65445621     0.84500
O533        O  0.94546730  0.15415653  0.80381328    -0.77600
C534        C  0.91799913  0.33700505  0.67990475     0.84600
C535        C  0.60915759  0.33712175  0.83810160     0.85000
O536        O  0.55370436  0.33529947  0.83547936    -0.80000
O537        O  0.69855768  0.32059274  0.61650209    -0.77500
C538        C  0.84036251  0.15668392  0.59123194     0.83600
O539        O  0.83855305  0.33634920  0.55081882    -0.78600
O540        O  0.80641058  0.15232859  0.93906640    -0.80100
O541        O  0.62609322  0.19313747  0.95574817    -0.79900
O542        O  0.63579153  0.31946852  0.54792631    -0.78500
Zn543      Zn  0.75331177  0.25434434  0.59841438     1.55700
O544        O  0.69497771  0.13033564  0.95056737    -0.79900
Cd545      Cd  0.66548967  0.25482580  0.00183124     1.59700
Cd546      Cd  0.79595176  0.29499953  0.97654915     1.59600
O547        O  0.65277191  0.30195117  0.93889460    -0.79900
O548        O  0.74560313  0.24549264  0.51755096    -1.90400
Cd549      Cd  0.75539182  0.16650085  0.99954744     1.59900
O550        O  0.73358699  0.34731077  0.92704055    -0.79900
O551        O  0.81622766  0.13594130  0.54844981    -0.78500
C552        C  0.83869625  0.33626047  0.60629466     0.84000
C553        C  0.65709037  0.34368626  0.59043828     0.83700
O554        O  0.81786738  0.19825113  0.61750852    -0.76500
C555        C  0.64863403  0.15026751  0.93263634     0.84500
O556        O  0.80555857  0.30489673  0.63223957    -0.77600
C557        C  0.67974388  0.34114551  0.91712759     0.84600
C558        C  0.84446422  0.17992566  0.91594663     0.85000
O559        O  0.84893739  0.23393007  0.92525226    -0.80000
O560        O  0.94798619  0.37418746  0.56523923    -0.77500
C561        C  0.59167104  0.40617988  0.90736265     0.83600
O562        O  0.57866760  0.47471227  0.58191384    -0.78600
O563        O  0.54728549  0.04900400  0.89258348    -0.80100
O564        O  0.88919205  0.07279781  0.94711905    -0.79900
O565        O  0.88892763  0.44489396  0.57352576    -0.78500
Zn566      Zn  0.49682988  0.40285842  0.49786791     1.55700
O567        O  0.94680553  0.06335061  0.87570857    -0.79900
Cd568      Cd  0.88942832  0.98915018  0.49095671     1.59700
Cd569      Cd  0.52722543  0.02930470  0.53232203     1.59600
O570        O  0.88518680  0.05040582  0.55076078    -0.79900
O571        O  0.47942701  0.48120948  0.48571970    -1.90400
Cd572      Cd  0.49330928  0.99254832  0.90444419     1.59900
O573        O  0.96972713  0.07802218  0.57960071    -0.79900
O574        O  0.56670876  0.44689516  0.88233151    -0.78500
C575        C  0.58149285  0.42052814  0.58220752     0.84000
C576        C  0.91176215  0.40182817  0.59474355     0.83700
O577        O  0.56592938  0.38089833  0.94765681    -0.77500
C578        C  0.91171270  0.09359190  0.90372678     0.84500
O579        O  0.55109750  0.39208947  0.55081345    -0.77600
C580        C  0.91539934  0.08073711  0.58103997     0.84600
C581        C  0.57744065  0.07968567  0.92188581     0.85000
O582        O  0.57576529  0.07836001  0.97603984    -0.80000
C583        C  0.87921166  0.37341404  0.64325952    -0.01500
C584        C  0.88070243  0.14334734  0.87551906    -0.01500
C585        C  0.64252989  0.37690016  0.87772535    -0.01500
C586        C  0.61605360  0.11730459  0.88920955    -0.01500
C587        C  0.88380354  0.11949868  0.62015971    -0.01500
C588        C  0.62010347  0.38699484  0.62044493    -0.01500
O589        O  0.69837368  0.94882409  0.13493565    -0.77500
C590        C  0.84137321  0.58749079  0.15481102     0.83600
O591        O  0.84802578  0.92198873  0.23546126    -0.78600
O592        O  0.80773888  0.63784028  0.30783716    -0.80100
O593        O  0.63058029  0.54565564  0.31950893    -0.79900
O594        O  0.62706083  0.95496506  0.19461019    -0.78500
Zn595      Zn  0.75727017  0.99904784  0.16728381     1.55700
O596        O  0.69433584  0.61183529  0.32672519    -0.79900
Cd597      Cd  0.66543464  0.00101444  0.25572496     1.59700
Cd598      Cd  0.79627214  0.97695340  0.29555437     1.59600
O599        O  0.65336103  0.93712257  0.30188019    -0.79900
O600        O  0.74630891  0.01802022  0.24511612    -1.90400
Cd601      Cd  0.74883173  0.60968644  0.25015832     1.59900
O602        O  0.73346686  0.92783406  0.34880654    -0.79900
O603        O  0.82811693  0.60831035  0.20156652    -0.78500
C604        C  0.84461955  0.91503862  0.18100658     0.84000
C605        C  0.65158531  0.93077810  0.15361711     0.83700
O606        O  0.80780370  0.55332727  0.13027033    -0.77500
C607        C  0.65231703  0.58588865  0.34697991     0.84500
O608        O  0.80945260  0.94275787  0.15394881    -0.77600
C609        C  0.67991481  0.91654777  0.34193662     0.84600
C610        C  0.84046222  0.60876960  0.33686759     0.85000
O611        O  0.83887669  0.55315827  0.33493344    -0.80000
O612        O  0.94860713  0.63087996  0.19739223    -0.77500
C613        C  0.58563442  0.65186856  0.34489846     0.83600
O614        O  0.92806991  0.73478265  0.34616062    -0.78600
O615        O  0.63898052  0.80583145  0.30816690    -0.80100
O616        O  0.55167675  0.81312700  0.12966619    -0.79900
O617        O  0.95438453  0.69136786  0.12713487    -0.78500
Zn618      Zn  0.00235941  0.66329591  0.25398338     1.55700
O619        O  0.61158066  0.82571636  0.19883073    -0.79900
Cd620      Cd  0.00406169  0.75089030  0.16404970     1.59700
Cd621      Cd  0.98022066  0.79297517  0.29360593     1.59600
O622        O  0.94031678  0.79823720  0.15275128    -0.79900
O623        O  0.02067987  0.74111879  0.24454004    -1.90400
Cd624      Cd  0.61150430  0.74700329  0.25024531     1.59900
O625        O  0.92908605  0.84408333  0.23306009    -0.79900
O626        O  0.60919723  0.69693981  0.32940753    -0.78500
C627        C  0.92006845  0.68093120  0.34066642     0.84000
C628        C  0.92945934  0.65082726  0.15161137     0.83700
O629        O  0.55052332  0.62766732  0.31219030    -0.77500
C630        C  0.58833296  0.84348620  0.15445622     0.84500
O631        O  0.94546733  0.65415652  0.30381331    -0.77600
C632        C  0.91799914  0.83700503  0.17990476     0.84600
C633        C  0.60915762  0.83712174  0.33810162     0.85000
O634        O  0.55370439  0.83529947  0.33547937    -0.80000
O635        O  0.69855768  0.82059274  0.11650212    -0.77500
C636        C  0.84036251  0.65668389  0.09123188     0.83600
O637        O  0.83855306  0.83634916  0.05081885    -0.78600
O638        O  0.80641059  0.65232859  0.43906641    -0.80100
O639        O  0.62609324  0.69313748  0.45574814    -0.79900
O640        O  0.63579156  0.81946855  0.04792631    -0.78500
Zn641      Zn  0.75331176  0.75434434  0.09841440     1.55700
O642        O  0.69497772  0.63033564  0.45056737    -0.79900
Cd643      Cd  0.66548968  0.75482579  0.50183124     1.59700
Cd644      Cd  0.79595177  0.79499953  0.47654915     1.59600
O645        O  0.65277193  0.80195119  0.43889462    -0.79900
O646        O  0.74560314  0.74549265  0.01755098    -1.90400
Cd647      Cd  0.75539183  0.66650085  0.49954744     1.59900
O648        O  0.73358702  0.84731077  0.42704055    -0.79900
O649        O  0.81622771  0.63594134  0.04844983    -0.78500
C650        C  0.83869625  0.83626044  0.10629468     0.84000
C651        C  0.65709038  0.84368628  0.09043829     0.83700
O652        O  0.81786738  0.69825115  0.11750856    -0.76500
C653        C  0.64863403  0.65026750  0.43263630     0.84500
O654        O  0.80555855  0.80489673  0.13223960    -0.77600
C655        C  0.67974390  0.84114551  0.41712760     0.84600
C656        C  0.84446423  0.67992566  0.41594665     0.85000
O657        O  0.84893742  0.73393007  0.42525229    -0.80000
O658        O  0.94798629  0.87418746  0.06523933    -0.77500
C659        C  0.59167106  0.90617989  0.40736265     0.83600
O660        O  0.57866758  0.97471229  0.08191385    -0.78600
O661        O  0.54728552  0.54900402  0.39258347    -0.80100
O662        O  0.88919214  0.57279788  0.44711917    -0.79900
O663        O  0.88892751  0.94489379  0.07352564    -0.78500
Zn664      Zn  0.49682988  0.90285841  0.99786792     1.55700
O665        O  0.94680550  0.56335057  0.37570859    -0.79900
Cd666      Cd  0.88942832  0.48915020  0.99095675     1.59700
Cd667      Cd  0.52722546  0.52930472  0.03232205     1.59600
O668        O  0.88518684  0.55040587  0.05076080    -0.79900
O669        O  0.47942696  0.98120949  0.98571971    -1.90400
Cd670      Cd  0.49330931  0.49254832  0.40444419     1.59900
O671        O  0.96972718  0.57802220  0.07960074    -0.79900
O672        O  0.56670877  0.94689516  0.38233150    -0.78500
C673        C  0.58149286  0.92052816  0.08220752     0.84000
C674        C  0.91176214  0.90182813  0.09474356     0.83700
O675        O  0.56592940  0.88089833  0.44765682    -0.77500
C676        C  0.91171272  0.59359190  0.40372683     0.84500
O677        O  0.55109752  0.89208949  0.05081345    -0.77600
C678        C  0.91539930  0.58073709  0.08103992     0.84600
C679        C  0.57744064  0.57968564  0.42188576     0.85000
O680        O  0.57576532  0.57836001  0.47603984    -0.80000
C681        C  0.87921167  0.87341401  0.14325954    -0.01500
C682        C  0.88070245  0.64334734  0.37551910    -0.01500
C683        C  0.64252991  0.87690017  0.37772536    -0.01500
C684        C  0.61605366  0.61730463  0.38920955    -0.01500
C685        C  0.88380360  0.61949875  0.12015977    -0.01500
C686        C  0.62010348  0.88699486  0.12044494    -0.01500
O687        O  0.69837366  0.94882410  0.63493563    -0.77500
C688        C  0.84137319  0.58749078  0.65481102     0.83600
O689        O  0.84802577  0.92198874  0.73546126    -0.78600
O690        O  0.80773885  0.63784029  0.80783713    -0.80100
O691        O  0.63058027  0.54565565  0.81950893    -0.79900
O692        O  0.62706083  0.95496502  0.69461019    -0.78500
Zn693      Zn  0.75727016  0.99904784  0.66728380     1.55700
O694        O  0.69433583  0.61183528  0.82672519    -0.79900
Cd695      Cd  0.66543462  0.00101445  0.75572495     1.59700
Cd696      Cd  0.79627212  0.97695340  0.79555436     1.59600
O697        O  0.65336101  0.93712261  0.80188022    -0.79900
O698        O  0.74630889  0.01802023  0.74511611    -1.90400
Cd699      Cd  0.74883170  0.60968643  0.75015830     1.59900
O700        O  0.73346685  0.92783405  0.84880653    -0.79900
O701        O  0.82811692  0.60831032  0.70156649    -0.78500
C702        C  0.84461954  0.91503862  0.68100658     0.84000
C703        C  0.65158531  0.93077809  0.65361710     0.83700
O704        O  0.80780366  0.55332725  0.63027030    -0.77500
C705        C  0.65231702  0.58588866  0.84697992     0.84500
O706        O  0.80945258  0.94275786  0.65394881    -0.77600
C707        C  0.67991480  0.91654778  0.84193662     0.84600
C708        C  0.84046219  0.60876961  0.83686756     0.85000
O709        O  0.83887666  0.55315828  0.83493341    -0.80000
O710        O  0.94860715  0.63087990  0.69739219    -0.77500
C711        C  0.58563442  0.65186857  0.84489848     0.83600
O712        O  0.92806991  0.73478265  0.84616060    -0.78600
O713        O  0.63898051  0.80583146  0.80816688    -0.80100
O714        O  0.55167670  0.81312703  0.62966619    -0.79900
O715        O  0.95438448  0.69136786  0.62713487    -0.78500
Zn716      Zn  0.00235940  0.66329590  0.75398336     1.55700
O717        O  0.61158070  0.82571629  0.69883067    -0.79900
Cd718      Cd  0.00406167  0.75089029  0.66404969     1.59700
Cd719      Cd  0.98022066  0.79297516  0.79360592     1.59600
O720        O  0.94031676  0.79823719  0.65275128    -0.79900
O721        O  0.02067987  0.74111877  0.74454002    -1.90400
Cd722      Cd  0.61150431  0.74700326  0.75024532     1.59900
O723        O  0.92908605  0.84408333  0.73306009    -0.79900
O724        O  0.60919723  0.69693980  0.82940754    -0.78500
C725        C  0.92006842  0.68093120  0.84066638     0.84000
C726        C  0.92945934  0.65082723  0.65161136     0.83700
O727        O  0.55052329  0.62766733  0.81219033    -0.77500
C728        C  0.58833298  0.84348619  0.65445622     0.84500
O729        O  0.94546728  0.65415653  0.80381325    -0.77600
C730        C  0.91799913  0.83700503  0.67990476     0.84600
C731        C  0.60915761  0.83712175  0.83810161     0.85000
O732        O  0.55370438  0.83529947  0.83547937    -0.80000
O733        O  0.69855769  0.82059276  0.61650208    -0.77500
C734        C  0.84036251  0.65668388  0.59123188     0.83600
O735        O  0.83855305  0.83634916  0.55081885    -0.78600
O736        O  0.80641057  0.65232860  0.93906640    -0.80100
O737        O  0.62609325  0.69313750  0.95574815    -0.79900
O738        O  0.63579152  0.81946851  0.54792631    -0.78500
Zn739      Zn  0.75331176  0.75434433  0.59841439     1.55700
O740        O  0.69497772  0.63033563  0.95056740    -0.79900
Cd741      Cd  0.66548968  0.75482581  0.00183124     1.59700
Cd742      Cd  0.79595177  0.79499954  0.97654915     1.59600
O743        O  0.65277193  0.80195119  0.93889462    -0.79900
O744        O  0.74560314  0.74549264  0.51755098    -1.90400
Cd745      Cd  0.75539184  0.66650086  0.99954744     1.59900
O746        O  0.73358701  0.84731077  0.92704055    -0.79900
O747        O  0.81622767  0.63594129  0.54844982    -0.78500
C748        C  0.83869625  0.83626044  0.60629468     0.84000
C749        C  0.65709038  0.84368627  0.59043828     0.83700
O750        O  0.81786739  0.69825114  0.61750852    -0.76500
C751        C  0.64863404  0.65026750  0.93263633     0.84500
O752        O  0.80555856  0.80489671  0.63223961    -0.77600
C753        C  0.67974389  0.84114552  0.91712760     0.84600
C754        C  0.84446422  0.67992566  0.91594662     0.85000
O755        O  0.84893740  0.73393007  0.92525226    -0.80000
O756        O  0.94798628  0.87418746  0.56523932    -0.77500
C757        C  0.59167105  0.90617989  0.90736265     0.83600
O758        O  0.57866758  0.97471227  0.58191384    -0.78600
O759        O  0.54728552  0.54900401  0.89258350    -0.80100
O760        O  0.88919202  0.57279779  0.94711903    -0.79900
O761        O  0.88892751  0.94489381  0.57352565    -0.78500
Zn762      Zn  0.49682987  0.90285841  0.49786792     1.55700
O763        O  0.94680556  0.56335063  0.87570858    -0.79900
Cd764      Cd  0.88942838  0.48915012  0.49095666     1.59700
Cd765      Cd  0.52722546  0.52930471  0.53232203     1.59600
O766        O  0.88518681  0.55040582  0.55076075    -0.79900
O767        O  0.47942697  0.98120948  0.48571970    -1.90400
Cd768      Cd  0.49330929  0.49254833  0.90444420     1.59900
O769        O  0.96972715  0.57802217  0.57960069    -0.79900
O770        O  0.56670876  0.94689515  0.88233150    -0.78500
C771        C  0.58149286  0.92052816  0.58220752     0.84000
C772        C  0.91176214  0.90182813  0.59474356     0.83700
O773        O  0.56592940  0.88089834  0.94765683    -0.77500
C774        C  0.91171269  0.59359190  0.90372677     0.84500
O775        O  0.55109751  0.89208947  0.55081343    -0.77600
C776        C  0.91539930  0.58073706  0.58103990     0.84600
C777        C  0.57744065  0.57968565  0.92188579     0.85000
O778        O  0.57576532  0.57836002  0.97603986    -0.80000
C779        C  0.87921166  0.87341401  0.64325954    -0.01500
C780        C  0.88070243  0.64334734  0.87551906    -0.01500
C781        C  0.64252990  0.87690017  0.87772536    -0.01500
C782        C  0.61605365  0.61730462  0.88920957    -0.01500
C783        C  0.88380357  0.61949870  0.62015973    -0.01500
C784        C  0.62010346  0.88699484  0.62044491    -0.01500
loop_ 
_geom_bond_atom_site_label_1 
_geom_bond_atom_site_label_2 
_geom_bond_distance 
_geom_bond_site_symmetry_2 
_ccdc_geom_bond_type 
O1           C17   1.270       .  A
O1           Zn7   1.995       .  S
C2           O18   1.280       .  A
C2           O15   1.257       .  A
C2           C97   1.508       .  S
O3           C16   1.309       .  A
O3          Cd10   2.291       .  S
O4           C22   1.248       .  A
O4          Cd13   2.072       .  S
O5           C19   1.270       .  A
O5         Cd205   2.027       .  S
O6           C17   1.272       .  A
O6           Cd9   2.037       .  S
Zn7          O20   1.849       .  S
Zn7         O214   1.970       .  S
Zn7          O12   1.924       .  S
O8           C19   1.268       .  A
O8          Cd13   2.233       .  S
Cd9          O11   1.897       .  S
Cd9         O201   2.027       .  S
Cd9          O12   1.977       .  S
Cd10         O14   2.278       .  S
Cd10        O219   2.279       .  S
Cd10         O12   1.949       .  S
O11          C21   1.243       .  A
O12        Cd209   2.184       .  S
Cd13         O15   2.207       .  S
Cd13        O208   2.184       .  S
O14          C21   1.309       .  A
C16          O20   1.243       .  A
C16          C93   1.567       .  S
C17          C98   1.507       .  S
O18        Zn203   1.970   1_545  S
C19          C96   1.518       .  S
C21          C95   1.550       .  S
C22          O23   1.324       .  A
C22          C94   1.562       .  S
O23        Cd206   2.279   1_545  S
O24          C40   1.272       .  A
O24         Zn30   2.010       .  S
C25          O41   1.278       .  A
C25          O38   1.264       .  A
C25          C96   1.519       .  S
O26          C39   1.302       .  A
O26         Cd33   2.239       .  S
O27          C45   1.248       .  A
O27         Cd36   2.071       .  S
O28          C42   1.276       .  A
O28        Cd424   2.035       .  S
O29          C40   1.273       .  A
O29         Cd32   2.043       .  S
Zn30         O43   1.809       .  S
Zn30        O433   1.985       .  S
Zn30         O35   1.915       .  S
O31          C42   1.264       .  A
O31         Cd36   2.236       .  S
Cd32         O34   1.903       .  S
Cd32        O420   2.035       .  S
Cd32         O35   1.970       .  S
Cd33         O37   2.241       .  S
Cd33        O438   2.248       .  S
Cd33         O35   1.949       .  S
O34          C44   1.243       .  A
O35        Cd428   2.163       .  S
Cd36         O38   2.229       .  S
Cd36        O427   2.163       .  S
O37          C44   1.303       .  A
C39          O43   1.239       .  A
C39          C94   1.536       .  S
C40          C97   1.514       .  S
O41        Zn422   1.985       .  S
C42          C98   1.515       .  S
C44          C93   1.535       .  S
C45          O46   1.318       .  A
C45          C95   1.554       .  S
O46        Cd425   2.248   1_455  S
O47          C63   1.286       .  A
O47         Zn53   2.085       .  S
C48          O64   1.285       .  A
C48          O61   1.269       .  A
C48          C97   1.522       .  S
O49          C62   1.320       .  A
O49        Cd154   2.263   1_554  S
O50          C68   1.245       .  A
O50         Cd59   1.909       .  S
O51          C65   1.275       .  A
O51         Cd55   2.058       .  S
O52          C63   1.270       .  A
O52        Cd153   2.014       .  S
Zn53         O64   2.080       .  S
Zn53         O66   1.907       .  S
Zn53         O58   1.945       .  S
O54          C65   1.271       .  A
O54         Cd59   2.040       .  S
Cd55         O57   1.895       .  S
Cd55        O150   2.014       .  S
Cd55        O156   1.949       .  S
Cd56         O60   2.263       .  S
Cd56         O69   2.274       .  S
Cd56        O147   2.263       .  S
Cd56        O156   1.941       .  S
O57          C67   1.244       .  A
O58        Cd153   1.949       .  S
O58        Cd154   1.941   1_554  S
O58        Cd157   1.940   1_554  S
Cd59        O159   1.991       .  S
Cd59        O156   1.940       .  S
O60          C67   1.307       .  A
O61        Cd157   1.991   1_554  S
C62          O66   1.247       .  A
C62          C93   1.576       .  S
C63          C98   1.528       .  S
C65          C96   1.511       .  S
C67          C95   1.543       .  S
C68          O69   1.308       .  A
C68          C94   1.555       .  S
O70          C86   1.288       .  A
O70        Zn468   2.092   1_554  S
C71          O87   1.286       .  A
C71          O84   1.281       .  A
C71          C95   1.560       .  S
O72          C85   1.290       .  A
O72        Cd275   2.136       .  S
O73          C91   1.238       .  A
O73         Cd82   1.878   1_445  S
O74          C88   1.263       .  A
O74        Cd176   2.246   1_545  S
O75          C86   1.263       .  A
O75        Cd274   2.229   1_554  S
Zn76         O89   1.820   1_656  S
Zn76        O462   2.092   1_556  S
Zn76        O185   2.092   1_655  S
Zn76         O81   1.930       .  S
O77          C88   1.285       .  A
O77        Cd474   2.125   1_545  S
Cd78         O80   2.039   1_566  S
Cd78        O172   2.246   1_565  S
Cd78        O271   2.229   1_556  S
Cd78        O669   2.146       .  S
Cd79        O268   2.136   1_545  S
Cd79        O475   2.112   1_455  S
Cd79        O190   2.117   1_554  S
Cd79        O277   1.958   1_444  S
O80          C90   1.248       .  A
O81        Cd275   1.958   1_656  S
O81        Cd376   1.980       .  S
O81        Cd666   2.146       .  S
Cd82        O469   2.125   1_565  S
Cd82        O280   2.116   1_655  S
Cd82        O375   1.980       .  S
O83          C90   1.290       .  A
O83        Cd471   2.112       .  S
O84        Cd278   2.116   1_455  S
C85          O89   1.240       .  A
C85          C98   1.517       .  S
C86          C93   1.544       .  S
O87        Zn174   2.092   1_455  S
C88          C94   1.546       .  S
C90          C97   1.508       .  S
C91          O92   1.290       .  A
C91          C96   1.498       .  S
O92        Cd177   2.117       .  S
O99         C115   1.270       .  A
O99        Zn105   1.995       .  S
C100        O116   1.280       .  A
C100        O113   1.257       .  A
C100        C195   1.508       .  S
O101        C114   1.309       .  A
O101       Cd108   2.291       .  S
O102        C120   1.248       .  A
O102       Cd111   2.072       .  S
O103        C117   1.270       .  A
O103       Cd303   2.027       .  S
O104        C115   1.272       .  A
O104       Cd107   2.037       .  S
Zn105       O312   1.970       .  S
Zn105       O118   1.849       .  S
Zn105       O110   1.924       .  S
O106        C117   1.268       .  A
O106       Cd111   2.233       .  S
Cd107       O299   2.027       .  S
Cd107       O109   1.897       .  S
Cd107       O110   1.977       .  S
Cd108       O112   2.278       .  S
Cd108       O317   2.279       .  S
Cd108       O110   1.949       .  S
O109        C119   1.243       .  A
O110       Cd307   2.184       .  S
Cd111       O113   2.207       .  S
Cd111       O306   2.184       .  S
O112        C119   1.309       .  A
C114        O118   1.243       .  A
C114        C191   1.567       .  S
C115        C196   1.507       .  S
O116       Zn301   1.970   1_545  S
C117        C194   1.518       .  S
C119        C193   1.550       .  S
C120        O121   1.324       .  A
C120        C192   1.562       .  S
O121       Cd304   2.279   1_545  S
O122        C138   1.272       .  A
O122       Zn128   2.010       .  S
C123        O139   1.278       .  A
C123        O136   1.264       .  A
C123        C194   1.519       .  S
O124        C137   1.302       .  A
O124       Cd131   2.239       .  S
O125        C143   1.248       .  A
O125       Cd134   2.071       .  S
O126        C140   1.276       .  A
O126       Cd522   2.035       .  S
O127        C138   1.273       .  A
O127       Cd130   2.043       .  S
Zn128       O531   1.985       .  S
Zn128       O141   1.809       .  S
Zn128       O133   1.915       .  S
O129        C140   1.264       .  A
O129       Cd134   2.236       .  S
Cd130       O518   2.035       .  S
Cd130       O132   1.903       .  S
Cd130       O133   1.970       .  S
Cd131       O135   2.241       .  S
Cd131       O536   2.248       .  S
Cd131       O133   1.949       .  S
O132        C142   1.243       .  A
O133       Cd526   2.163       .  S
Cd134       O136   2.229       .  S
Cd134       O525   2.163       .  S
O135        C142   1.303       .  A
C137        O141   1.239       .  A
C137        C192   1.536       .  S
C138        C195   1.514       .  S
O139       Zn520   1.985       .  S
C140        C196   1.515       .  S
C142        C191   1.535       .  S
C143        O144   1.318       .  A
C143        C193   1.554       .  S
O144       Cd523   2.248   1_455  S
O145        C161   1.286       .  A
O145       Zn151   2.085       .  S
C146        O162   1.285       .  A
C146        O159   1.269       .  A
C146        C195   1.522       .  S
O147        C160   1.320       .  A
O148        C166   1.245       .  A
O148       Cd157   1.909       .  S
O149        C163   1.275       .  A
O149       Cd153   2.058   1_556  S
O150        C161   1.270       .  A
Zn151       O162   2.080       .  S
Zn151       O164   1.907       .  S
Zn151       O156   1.945       .  S
O152        C163   1.271       .  A
O152       Cd157   2.040       .  S
Cd153       O155   1.895   1_554  S
Cd154       O158   2.263       .  S
Cd154       O167   2.274       .  S
O155        C165   1.244       .  A
O158        C165   1.307       .  A
C160        O164   1.247       .  A
C160        C191   1.576       .  S
C161        C196   1.528       .  S
C163        C194   1.511       .  S
C165        C193   1.543       .  S
C166        O167   1.308       .  A
C166        C192   1.555       .  S
O168        C184   1.288       .  A
O168       Zn566   2.092       .  S
C169        O185   1.286       .  A
C169        O182   1.281       .  A
C169        C193   1.560       .  S
O170        C183   1.290       .  A
O170       Cd373   2.136       .  S
O171        C189   1.238       .  A
O171       Cd180   1.878   1_445  S
O172        C186   1.263       .  A
O173        C184   1.263       .  A
O173       Cd372   2.229       .  S
Zn174       O560   2.092       .  S
Zn174       O187   1.820   1_655  S
Zn174       O179   1.930       .  S
O175        C186   1.285       .  A
O175       Cd572   2.125   1_545  S
Cd176       O369   2.229       .  S
Cd176       O178   2.039   1_565  S
Cd176       O767   2.146       .  S
Cd177       O366   2.136   1_545  S
Cd177       O573   2.112   1_455  S
Cd177       O375   1.958   1_445  S
O178        C188   1.248       .  A
O179       Cd373   1.958   1_655  S
O179       Cd278   1.980       .  S
O179       Cd764   2.146       .  S
Cd180       O567   2.125   1_565  S
Cd180       O378   2.116   1_655  S
Cd180       O277   1.980       .  S
O181        C188   1.290       .  A
O181       Cd569   2.112       .  S
O182       Cd376   2.116   1_455  S
C183        O187   1.240       .  A
C183        C196   1.517       .  S
C184        C191   1.544       .  S
C186        C192   1.546       .  S
C188        C195   1.508       .  S
C189        O190   1.290       .  A
C189        C194   1.498       .  S
O197        C213   1.270       .  A
O197       Zn203   1.995       .  S
C198        O214   1.280       .  A
C198        O211   1.257       .  A
C198        C293   1.508       .  S
O199        C212   1.309       .  A
O199       Cd206   2.291       .  S
O200        C218   1.248       .  A
O200       Cd209   2.072       .  S
O201        C215   1.270       .  A
O202        C213   1.272       .  A
O202       Cd205   2.037   1_565  S
Zn203       O216   1.849       .  S
Zn203       O208   1.924   1_565  S
O204        C215   1.268       .  A
O204       Cd209   2.233       .  S
Cd205       O207   1.897   1_545  S
Cd205       O208   1.977       .  S
Cd206       O210   2.278       .  S
Cd206       O208   1.949   1_565  S
O207        C217   1.243       .  A
Cd209       O211   2.207       .  S
O210        C217   1.309       .  A
C212        O216   1.243       .  A
C212        C289   1.567       .  S
C213        C294   1.507       .  S
C215        C292   1.518       .  S
C217        C291   1.550       .  S
C218        O219   1.324       .  A
C218        C290   1.562       .  S
O220        C236   1.272       .  A
O220       Zn226   2.010       .  S
C221        O237   1.278       .  A
C221        O234   1.264       .  A
C221        C292   1.519       .  S
O222        C235   1.302       .  A
O222       Cd229   2.239       .  S
O223        C241   1.248       .  A
O223       Cd232   2.071       .  S
O224        C238   1.276       .  A
O224       Cd620   2.035       .  S
O225        C236   1.273       .  A
O225       Cd228   2.043       .  S
Zn226       O629   1.985       .  S
Zn226       O239   1.809       .  S
Zn226       O231   1.915       .  S
O227        C238   1.264       .  A
O227       Cd232   2.236       .  S
Cd228       O616   2.035       .  S
Cd228       O230   1.903       .  S
Cd228       O231   1.970       .  S
Cd229       O233   2.241       .  S
Cd229       O634   2.248       .  S
Cd229       O231   1.949       .  S
O230        C240   1.243       .  A
O231       Cd624   2.163       .  S
Cd232       O234   2.229       .  S
Cd232       O623   2.163       .  S
O233        C240   1.303       .  A
C235        O239   1.239       .  A
C235        C290   1.536       .  S
C236        C293   1.514       .  S
O237       Zn618   1.985       .  S
C238        C294   1.515       .  S
C240        C289   1.535       .  S
C241        O242   1.318       .  A
C241        C291   1.554       .  S
O242       Cd621   2.248   1_455  S
O243        C259   1.286       .  A
O243       Zn249   2.085       .  S
C244        O260   1.285       .  A
C244        O257   1.269       .  A
C244        C293   1.522       .  S
O245        C258   1.320       .  A
O245       Cd350   2.263   1_554  S
O246        C264   1.245       .  A
O246       Cd255   1.909       .  S
O247        C261   1.275       .  A
O247       Cd251   2.058       .  S
O248        C259   1.270       .  A
O248       Cd349   2.014       .  S
Zn249       O260   2.080       .  S
Zn249       O262   1.907       .  S
Zn249       O254   1.945       .  S
O250        C261   1.271       .  A
O250       Cd255   2.040       .  S
Cd251       O346   2.014       .  S
Cd251       O253   1.895       .  S
Cd251       O352   1.949       .  S
Cd252       O343   2.263       .  S
Cd252       O256   2.263       .  S
Cd252       O265   2.274       .  S
Cd252       O352   1.941       .  S
O253        C263   1.244       .  A
O254       Cd349   1.949       .  S
O254       Cd350   1.941   1_554  S
O254       Cd353   1.940   1_554  S
Cd255       O355   1.991       .  S
Cd255       O352   1.940       .  S
O256        C263   1.307       .  A
O257       Cd353   1.991   1_554  S
C258        O262   1.247       .  A
C258        C289   1.576       .  S
C259        C294   1.528       .  S
C261        C292   1.511       .  S
C263        C291   1.543       .  S
C264        O265   1.308       .  A
C264        C290   1.555       .  S
O266        C282   1.288       .  A
O266       Zn664   2.092   1_554  S
C267        O283   1.286       .  A
C267        O280   1.281       .  A
C267        C291   1.560       .  S
O268        C281   1.290       .  A
O269        C287   1.238       .  A
O269       Cd278   1.878   1_455  S
O270        C284   1.263       .  A
O270       Cd372   2.246       .  S
O271        C282   1.263       .  A
Zn272       O658   2.092   1_556  S
Zn272       O381   2.092   1_655  S
Zn272       O285   1.820   1_656  S
Zn272       O277   1.930       .  S
O273        C284   1.285       .  A
O273       Cd670   2.125       .  S
Cd274       O368   2.246       .  S
Cd274       O276   2.039   1_556  S
Cd274       O473   2.146       .  S
Cd275       O671   2.112   1_455  S
Cd275       O386   2.117   1_554  S
O276        C286   1.248       .  A
O277       Cd470   2.146       .  S
Cd278       O665   2.125       .  S
O279        C286   1.290       .  A
O279       Cd667   2.112       .  S
C281        O285   1.240       .  A
C281        C294   1.517       .  S
C282        C289   1.544       .  S
O283       Zn370   2.092   1_455  S
C284        C290   1.546       .  S
C286        C293   1.508       .  S
C287        O288   1.290       .  A
C287        C292   1.498       .  S
O288       Cd373   2.117       .  S
O295        C311   1.270       .  A
O295       Zn301   1.995       .  S
C296        O312   1.280       .  A
C296        O309   1.257       .  A
C296        C391   1.508       .  S
O297        C310   1.309       .  A
O297       Cd304   2.291       .  S
O298        C316   1.248       .  A
O298       Cd307   2.072       .  S
O299        C313   1.270       .  A
O300        C311   1.272       .  A
O300       Cd303   2.037   1_565  S
Zn301       O314   1.849       .  S
Zn301       O306   1.924   1_565  S
O302        C313   1.268       .  A
O302       Cd307   2.233       .  S
Cd303       O305   1.897   1_545  S
Cd303       O306   1.977       .  S
Cd304       O308   2.278       .  S
Cd304       O306   1.949   1_565  S
O305        C315   1.243       .  A
Cd307       O309   2.207       .  S
O308        C315   1.309       .  A
C310        O314   1.243       .  A
C310        C387   1.567       .  S
C311        C392   1.507       .  S
C313        C390   1.518       .  S
C315        C389   1.550       .  S
C316        O317   1.324       .  A
C316        C388   1.562       .  S
O318        C334   1.272       .  A
O318       Zn324   2.010       .  S
C319        O335   1.278       .  A
C319        O332   1.264       .  A
C319        C390   1.519       .  S
O320        C333   1.302       .  A
O320       Cd327   2.239       .  S
O321        C339   1.248       .  A
O321       Cd330   2.071       .  S
O322        C336   1.276       .  A
O322       Cd718   2.035       .  S
O323        C334   1.273       .  A
O323       Cd326   2.043       .  S
Zn324       O727   1.985       .  S
Zn324       O337   1.809       .  S
Zn324       O329   1.915       .  S
O325        C336   1.264       .  A
O325       Cd330   2.236       .  S
Cd326       O714   2.035       .  S
Cd326       O328   1.903       .  S
Cd326       O329   1.970       .  S
Cd327       O331   2.241       .  S
Cd327       O732   2.248       .  S
Cd327       O329   1.949       .  S
O328        C338   1.243       .  A
O329       Cd722   2.163       .  S
Cd330       O332   2.229       .  S
Cd330       O721   2.163       .  S
O331        C338   1.303       .  A
C333        O337   1.239       .  A
C333        C388   1.536       .  S
C334        C391   1.514       .  S
O335       Zn716   1.985       .  S
C336        C392   1.515       .  S
C338        C387   1.535       .  S
C339        O340   1.318       .  A
C339        C389   1.554       .  S
O340       Cd719   2.248   1_455  S
O341        C357   1.286       .  A
O341       Zn347   2.085       .  S
C342        O358   1.285       .  A
C342        O355   1.269       .  A
C342        C391   1.522       .  S
O343        C356   1.320       .  A
O344        C362   1.245       .  A
O344       Cd353   1.909       .  S
O345        C359   1.275       .  A
O345       Cd349   2.058   1_556  S
O346        C357   1.270       .  A
Zn347       O358   2.080       .  S
Zn347       O360   1.907       .  S
Zn347       O352   1.945       .  S
O348        C359   1.271       .  A
O348       Cd353   2.040       .  S
Cd349       O351   1.895   1_554  S
Cd350       O354   2.263       .  S
Cd350       O363   2.274       .  S
O351        C361   1.244       .  A
O354        C361   1.307       .  A
C356        O360   1.247       .  A
C356        C387   1.576       .  S
C357        C392   1.528       .  S
C359        C390   1.511       .  S
C361        C389   1.543       .  S
C362        O363   1.308       .  A
C362        C388   1.555       .  S
O364        C380   1.288       .  A
O364       Zn762   2.092       .  S
C365        O381   1.286       .  A
C365        O378   1.281       .  A
C365        C389   1.560       .  S
O366        C379   1.290       .  A
O367        C385   1.238       .  A
O367       Cd376   1.878   1_455  S
O368        C382   1.263       .  A
O369        C380   1.263       .  A
Zn370       O756   2.092       .  S
Zn370       O383   1.820   1_655  S
Zn370       O375   1.930       .  S
O371        C382   1.285       .  A
O371       Cd768   2.125       .  S
Cd372       O374   2.039       .  S
Cd372       O571   2.146       .  S
Cd373       O769   2.112   1_455  S
O374        C384   1.248       .  A
O375       Cd568   2.146       .  S
Cd376       O763   2.125       .  S
O377        C384   1.290       .  A
O377       Cd765   2.112       .  S
C379        O383   1.240       .  A
C379        C392   1.517       .  S
C380        C387   1.544       .  S
C382        C388   1.546       .  S
C384        C391   1.508       .  S
C385        O386   1.290       .  A
C385        C390   1.498       .  S
O393        C409   1.270       .  A
O393       Zn399   1.995       .  S
C394        O410   1.280       .  A
C394        O407   1.257       .  A
C394        C489   1.508       .  S
O395        C408   1.309       .  A
O395       Cd402   2.291       .  S
O396        C414   1.248       .  A
O396       Cd405   2.072       .  S
O397        C411   1.270       .  A
O397       Cd597   2.027       .  S
O398        C409   1.272       .  A
O398       Cd401   2.037       .  S
Zn399       O606   1.970       .  S
Zn399       O412   1.849       .  S
Zn399       O404   1.924       .  S
O400        C411   1.268       .  A
O400       Cd405   2.233       .  S
Cd401       O593   2.027       .  S
Cd401       O403   1.897       .  S
Cd401       O404   1.977       .  S
Cd402       O406   2.278       .  S
Cd402       O611   2.279       .  S
Cd402       O404   1.949       .  S
O403        C413   1.243       .  A
O404       Cd601   2.184       .  S
Cd405       O407   2.207       .  S
Cd405       O600   2.184       .  S
O406        C413   1.309       .  A
C408        O412   1.243       .  A
C408        C485   1.567       .  S
C409        C490   1.507       .  S
O410       Zn595   1.970   1_545  S
C411        C488   1.518       .  S
C413        C487   1.550       .  S
C414        O415   1.324       .  A
C414        C486   1.562       .  S
O415       Cd598   2.279   1_545  S
O416        C432   1.272       .  A
O416       Zn422   2.010   1_655  S
C417        O433   1.278       .  A
C417        O430   1.264       .  A
C417        C488   1.519       .  S
O418        C431   1.302       .  A
O418       Cd425   2.239       .  S
O419        C437   1.248       .  A
O419       Cd428   2.071       .  S
O420        C434   1.276       .  A
O421        C432   1.273       .  A
O421       Cd424   2.043   1_655  S
Zn422       O435   1.809   1_455  S
Zn422       O427   1.915       .  S
O423        C434   1.264       .  A
O423       Cd428   2.236       .  S
Cd424       O426   1.903   1_455  S
Cd424       O427   1.970       .  S
Cd425       O429   2.241       .  S
Cd425       O427   1.949   1_655  S
O426        C436   1.243       .  A
Cd428       O430   2.229       .  S
O429        C436   1.303       .  A
C431        O435   1.239       .  A
C431        C486   1.536       .  S
C432        C489   1.514       .  S
C434        C490   1.515       .  S
C436        C485   1.535       .  S
C437        O438   1.318       .  A
C437        C487   1.554       .  S
O439        C455   1.286       .  A
O439       Zn445   2.085       .  S
C440        O456   1.285       .  A
C440        O453   1.269       .  A
C440        C489   1.522       .  S
O441        C454   1.320       .  A
O441       Cd546   2.263   1_554  S
O442        C460   1.245       .  A
O442       Cd451   1.909       .  S
O443        C457   1.275       .  A
O443       Cd447   2.058       .  S
O444        C455   1.270       .  A
O444       Cd545   2.014       .  S
Zn445       O456   2.080       .  S
Zn445       O458   1.907       .  S
Zn445       O450   1.945       .  S
O446        C457   1.271       .  A
O446       Cd451   2.040       .  S
Cd447       O542   2.014       .  S
Cd447       O449   1.895       .  S
Cd447       O548   1.949       .  S
Cd448       O539   2.263       .  S
Cd448       O452   2.263       .  S
Cd448       O461   2.274       .  S
Cd448       O548   1.941       .  S
O449        C459   1.244       .  A
O450       Cd545   1.949       .  S
O450       Cd546   1.941   1_554  S
O450       Cd549   1.940   1_554  S
Cd451       O551   1.991       .  S
Cd451       O548   1.940       .  S
O452        C459   1.307       .  A
O453       Cd549   1.991   1_554  S
C454        O458   1.247       .  A
C454        C485   1.576       .  S
C455        C490   1.528       .  S
C457        C488   1.511       .  S
C459        C487   1.543       .  S
C460        O461   1.308       .  A
C460        C486   1.555       .  S
O462        C478   1.288       .  A
C463        O479   1.286       .  A
C463        O476   1.281       .  A
C463        C487   1.560       .  S
O464        C477   1.290       .  A
O464       Cd667   2.136       .  S
O465        C483   1.238       .  A
O465       Cd474   1.878   1_545  S
O466        C480   1.263       .  A
O466       Cd568   2.246   1_545  S
O467        C478   1.263       .  A
O467       Cd666   2.229   1_554  S
Zn468       O577   2.092       .  S
Zn468       O481   1.820   1_556  S
Zn468       O473   1.930       .  S
O469        C480   1.285       .  A
Cd470       O564   2.246   1_565  S
Cd470       O663   2.229   1_556  S
Cd470       O472   2.039   1_566  S
Cd471       O660   2.136   1_545  S
Cd471       O582   2.117   1_554  S
Cd471       O669   1.958   1_544  S
O472        C482   1.248       .  A
O473       Cd667   1.958   1_556  S
O473       Cd768   1.980       .  S
Cd474       O672   2.116       .  S
Cd474       O767   1.980       .  S
O475        C482   1.290       .  A
O476       Cd670   2.116       .  S
C477        O481   1.240       .  A
C477        C490   1.517       .  S
C478        C485   1.544       .  S
O479       Zn566   2.092       .  S
C480        C486   1.546       .  S
C482        C489   1.508       .  S
C483        O484   1.290       .  A
C483        C488   1.498       .  S
O484       Cd569   2.117       .  S
O491        C507   1.270       .  A
O491       Zn497   1.995       .  S
C492        O508   1.280       .  A
C492        O505   1.257       .  A
C492        C587   1.508       .  S
O493        C506   1.309       .  A
O493       Cd500   2.291       .  S
O494        C512   1.248       .  A
O494       Cd503   2.072       .  S
O495        C509   1.270       .  A
O495       Cd695   2.027       .  S
O496        C507   1.272       .  A
O496       Cd499   2.037       .  S
Zn497       O704   1.970       .  S
Zn497       O510   1.849       .  S
Zn497       O502   1.924       .  S
O498        C509   1.268       .  A
O498       Cd503   2.233       .  S
Cd499       O691   2.027       .  S
Cd499       O501   1.897       .  S
Cd499       O502   1.977       .  S
Cd500       O504   2.278       .  S
Cd500       O709   2.279       .  S
Cd500       O502   1.949       .  S
O501        C511   1.243       .  A
O502       Cd699   2.184       .  S
Cd503       O505   2.207       .  S
Cd503       O698   2.184       .  S
O504        C511   1.309       .  A
C506        O510   1.243       .  A
C506        C583   1.567       .  S
C507        C588   1.507       .  S
O508       Zn693   1.970   1_545  S
C509        C586   1.518       .  S
C511        C585   1.550       .  S
C512        O513   1.324       .  A
C512        C584   1.562       .  S
O513       Cd696   2.279   1_545  S
O514        C530   1.272       .  A
O514       Zn520   2.010   1_655  S
C515        O531   1.278       .  A
C515        O528   1.264       .  A
C515        C586   1.519       .  S
O516        C529   1.302       .  A
O516       Cd523   2.239       .  S
O517        C535   1.248       .  A
O517       Cd526   2.071       .  S
O518        C532   1.276       .  A
O519        C530   1.273       .  A
O519       Cd522   2.043   1_655  S
Zn520       O533   1.809   1_455  S
Zn520       O525   1.915       .  S
O521        C532   1.264       .  A
O521       Cd526   2.236       .  S
Cd522       O524   1.903   1_455  S
Cd522       O525   1.970       .  S
Cd523       O527   2.241       .  S
Cd523       O525   1.949   1_655  S
O524        C534   1.243       .  A
Cd526       O528   2.229       .  S
O527        C534   1.303       .  A
C529        O533   1.239       .  A
C529        C584   1.536       .  S
C530        C587   1.514       .  S
C532        C588   1.515       .  S
C534        C583   1.535       .  S
C535        O536   1.318       .  A
C535        C585   1.554       .  S
O537        C553   1.286       .  A
O537       Zn543   2.085       .  S
C538        O554   1.285       .  A
C538        O551   1.269       .  A
C538        C587   1.522       .  S
O539        C552   1.320       .  A
O540        C558   1.245       .  A
O540       Cd549   1.909       .  S
O541        C555   1.275       .  A
O541       Cd545   2.058   1_556  S
O542        C553   1.270       .  A
Zn543       O554   2.080       .  S
Zn543       O556   1.907       .  S
Zn543       O548   1.945       .  S
O544        C555   1.271       .  A
O544       Cd549   2.040       .  S
Cd545       O547   1.895   1_554  S
Cd546       O550   2.263       .  S
Cd546       O559   2.274       .  S
O547        C557   1.244       .  A
O550        C557   1.307       .  A
C552        O556   1.247       .  A
C552        C583   1.576       .  S
C553        C588   1.528       .  S
C555        C586   1.511       .  S
C557        C585   1.543       .  S
C558        O559   1.308       .  A
C558        C584   1.555       .  S
O560        C576   1.288       .  A
C561        O577   1.286       .  A
C561        O574   1.281       .  A
C561        C585   1.560       .  S
O562        C575   1.290       .  A
O562       Cd765   2.136       .  S
O563        C581   1.238       .  A
O563       Cd572   1.878   1_545  S
O564        C578   1.263       .  A
O565        C576   1.263       .  A
O565       Cd764   2.229       .  S
Zn566       O579   1.820       .  S
Zn566       O571   1.930       .  S
O567        C578   1.285       .  A
Cd568       O761   2.229       .  S
Cd568       O570   2.039   1_565  S
Cd569       O758   2.136   1_545  S
Cd569       O767   1.958   1_545  S
O570        C580   1.248       .  A
O571       Cd765   1.958       .  S
O571       Cd670   1.980       .  S
Cd572       O770   2.116       .  S
Cd572       O669   1.980       .  S
O573        C580   1.290       .  A
O574       Cd768   2.116       .  S
C575        O579   1.240       .  A
C575        C588   1.517       .  S
C576        C583   1.544       .  S
C578        C584   1.546       .  S
C580        C587   1.508       .  S
C581        O582   1.290       .  A
C581        C586   1.498       .  S
O589        C605   1.270       .  A
O589       Zn595   1.995       .  S
C590        O606   1.280       .  A
C590        O603   1.257       .  A
C590        C685   1.508       .  S
O591        C604   1.309       .  A
O591       Cd598   2.291       .  S
O592        C610   1.248       .  A
O592       Cd601   2.072       .  S
O593        C607   1.270       .  A
O594        C605   1.272       .  A
O594       Cd597   2.037   1_565  S
Zn595       O608   1.849       .  S
Zn595       O600   1.924   1_565  S
O596        C607   1.268       .  A
O596       Cd601   2.233       .  S
Cd597       O599   1.897   1_545  S
Cd597       O600   1.977       .  S
Cd598       O602   2.278       .  S
Cd598       O600   1.949   1_565  S
O599        C609   1.243       .  A
Cd601       O603   2.207       .  S
O602        C609   1.309       .  A
C604        O608   1.243       .  A
C604        C681   1.567       .  S
C605        C686   1.507       .  S
C607        C684   1.518       .  S
C609        C683   1.550       .  S
C610        O611   1.324       .  A
C610        C682   1.562       .  S
O612        C628   1.272       .  A
O612       Zn618   2.010   1_655  S
C613        O629   1.278       .  A
C613        O626   1.264       .  A
C613        C684   1.519       .  S
O614        C627   1.302       .  A
O614       Cd621   2.239       .  S
O615        C633   1.248       .  A
O615       Cd624   2.071       .  S
O616        C630   1.276       .  A
O617        C628   1.273       .  A
O617       Cd620   2.043   1_655  S
Zn618       O631   1.809   1_455  S
Zn618       O623   1.915       .  S
O619        C630   1.264       .  A
O619       Cd624   2.236       .  S
Cd620       O622   1.903   1_455  S
Cd620       O623   1.970       .  S
Cd621       O625   2.241       .  S
Cd621       O623   1.949   1_655  S
O622        C632   1.243       .  A
Cd624       O626   2.229       .  S
O625        C632   1.303       .  A
C627        O631   1.239       .  A
C627        C682   1.536       .  S
C628        C685   1.514       .  S
C630        C686   1.515       .  S
C632        C681   1.535       .  S
C633        O634   1.318       .  A
C633        C683   1.554       .  S
O635        C651   1.286       .  A
O635       Zn641   2.085       .  S
C636        O652   1.285       .  A
C636        O649   1.269       .  A
C636        C685   1.522       .  S
O637        C650   1.320       .  A
O637       Cd742   2.263   1_554  S
O638        C656   1.245       .  A
O638       Cd647   1.909       .  S
O639        C653   1.275       .  A
O639       Cd643   2.058       .  S
O640        C651   1.270       .  A
O640       Cd741   2.014       .  S
Zn641       O652   2.080       .  S
Zn641       O654   1.907       .  S
Zn641       O646   1.945       .  S
O642        C653   1.271       .  A
O642       Cd647   2.040       .  S
Cd643       O738   2.014       .  S
Cd643       O645   1.895       .  S
Cd643       O744   1.949       .  S
Cd644       O735   2.263       .  S
Cd644       O648   2.263       .  S
Cd644       O657   2.274       .  S
Cd644       O744   1.941       .  S
O645        C655   1.244       .  A
O646       Cd741   1.949       .  S
O646       Cd742   1.941   1_554  S
O646       Cd745   1.940   1_554  S
Cd647       O747   1.991       .  S
Cd647       O744   1.940       .  S
O648        C655   1.307       .  A
O649       Cd745   1.991   1_554  S
C650        O654   1.247       .  A
C650        C681   1.576       .  S
C651        C686   1.528       .  S
C653        C684   1.511       .  S
C655        C683   1.543       .  S
C656        O657   1.308       .  A
C656        C682   1.555       .  S
O658        C674   1.288       .  A
C659        O675   1.286       .  A
C659        O672   1.281       .  A
C659        C683   1.560       .  S
O660        C673   1.290       .  A
O661        C679   1.238       .  A
O661       Cd670   1.878       .  S
O662        C676   1.263       .  A
O662       Cd764   2.246       .  S
O663        C674   1.263       .  A
Zn664       O773   2.092       .  S
Zn664       O677   1.820   1_556  S
Zn664       O669   1.930       .  S
O665        C676   1.285       .  A
Cd666       O760   2.246       .  S
Cd666       O668   2.039   1_556  S
Cd667       O778   2.117   1_554  S
O668        C678   1.248       .  A
O671        C678   1.290       .  A
C673        O677   1.240       .  A
C673        C686   1.517       .  S
C674        C681   1.544       .  S
O675       Zn762   2.092       .  S
C676        C682   1.546       .  S
C678        C685   1.508       .  S
C679        O680   1.290       .  A
C679        C684   1.498       .  S
O680       Cd765   2.117       .  S
O687        C703   1.270       .  A
O687       Zn693   1.995       .  S
C688        O704   1.280       .  A
C688        O701   1.257       .  A
C688        C783   1.508       .  S
O689        C702   1.309       .  A
O689       Cd696   2.291       .  S
O690        C708   1.248       .  A
O690       Cd699   2.072       .  S
O691        C705   1.270       .  A
O692        C703   1.272       .  A
O692       Cd695   2.037   1_565  S
Zn693       O706   1.849       .  S
Zn693       O698   1.924   1_565  S
O694        C705   1.268       .  A
O694       Cd699   2.233       .  S
Cd695       O697   1.897   1_545  S
Cd695       O698   1.977       .  S
Cd696       O700   2.278       .  S
Cd696       O698   1.949   1_565  S
O697        C707   1.243       .  A
Cd699       O701   2.207       .  S
O700        C707   1.309       .  A
C702        O706   1.243       .  A
C702        C779   1.567       .  S
C703        C784   1.507       .  S
C705        C782   1.518       .  S
C707        C781   1.550       .  S
C708        O709   1.324       .  A
C708        C780   1.562       .  S
O710        C726   1.272       .  A
O710       Zn716   2.010   1_655  S
C711        O727   1.278       .  A
C711        O724   1.264       .  A
C711        C782   1.519       .  S
O712        C725   1.302       .  A
O712       Cd719   2.239       .  S
O713        C731   1.248       .  A
O713       Cd722   2.071       .  S
O714        C728   1.276       .  A
O715        C726   1.273       .  A
O715       Cd718   2.043   1_655  S
Zn716       O729   1.809   1_455  S
Zn716       O721   1.915       .  S
O717        C728   1.264       .  A
O717       Cd722   2.236       .  S
Cd718       O720   1.903   1_455  S
Cd718       O721   1.970       .  S
Cd719       O723   2.241       .  S
Cd719       O721   1.949   1_655  S
O720        C730   1.243       .  A
Cd722       O724   2.229       .  S
O723        C730   1.303       .  A
C725        O729   1.239       .  A
C725        C780   1.536       .  S
C726        C783   1.514       .  S
C728        C784   1.515       .  S
C730        C779   1.535       .  S
C731        O732   1.318       .  A
C731        C781   1.554       .  S
O733        C749   1.286       .  A
O733       Zn739   2.085       .  S
C734        O750   1.285       .  A
C734        O747   1.269       .  A
C734        C783   1.522       .  S
O735        C748   1.320       .  A
O736        C754   1.245       .  A
O736       Cd745   1.909       .  S
O737        C751   1.275       .  A
O737       Cd741   2.058   1_556  S
O738        C749   1.270       .  A
Zn739       O750   2.080       .  S
Zn739       O752   1.907       .  S
Zn739       O744   1.945       .  S
O740        C751   1.271       .  A
O740       Cd745   2.040       .  S
Cd741       O743   1.895   1_554  S
Cd742       O746   2.263       .  S
Cd742       O755   2.274       .  S
O743        C753   1.244       .  A
O746        C753   1.307       .  A
C748        O752   1.247       .  A
C748        C779   1.576       .  S
C749        C784   1.528       .  S
C751        C782   1.511       .  S
C753        C781   1.543       .  S
C754        O755   1.308       .  A
C754        C780   1.555       .  S
O756        C772   1.288       .  A
C757        O773   1.286       .  A
C757        O770   1.281       .  A
C757        C781   1.560       .  S
O758        C771   1.290       .  A
O759        C777   1.238       .  A
O759       Cd768   1.878       .  S
O760        C774   1.263       .  A
O761        C772   1.263       .  A
Zn762       O775   1.820       .  S
Zn762       O767   1.930       .  S
O763        C774   1.285       .  A
Cd764       O766   2.039       .  S
O766        C776   1.248       .  A
O769        C776   1.290       .  A
C771        O775   1.240       .  A
C771        C784   1.517       .  S
C772        C779   1.544       .  S
C774        C780   1.546       .  S
C776        C783   1.508       .  S
C777        O778   1.290       .  A
C777        C782   1.498       .  S
