geometry optimzed in LAMMPS
_audit_creation_date              2020-12-01 
_audit_creation_method            'lammps2cif' 
_symmetry_space_group_name_H-M    'P1' 
_symmetry_Int_Tables_number       1 
_symmetry_cell_setting            triclinic 
loop_ 
_symmetry_equiv_pos_as_xyz 
  x,y,z 
_cell_length_a                    35.82164295 
_cell_length_b                    35.83318309539581 
_cell_length_c                    25.885861423003025 
_cell_angle_alpha                 89.9963974802032 
_cell_angle_beta                  90.00120318239672 
_cell_angle_gamma                 119.8794303336986 
loop_ 
_atom_site_label 
_atom_site_type_symbol 
_atom_site_fract_x 
_atom_site_fract_y 
_atom_site_fract_z 
_atom_site_charge 
C1          C  0.38671128  0.44102165  0.17987530     0.81200
N2          N  0.36230831  0.43076413  0.13504131    -0.77100
C3          C  0.31731781  0.40856050  0.13579259     0.83600
N4          N  0.29678259  0.39676304  0.18263435    -0.77100
C5          C  0.31957109  0.40625426  0.22788896     0.83700
N6          N  0.36422704  0.42821145  0.22582473    -0.78800
C7          C  0.03134639  0.08518115  0.18055430     0.81200
N8          N  0.04302325  0.11014005  0.13606343    -0.77100
C9          C  0.06567537  0.15512908  0.13760106     0.83600
N10         N  0.07648950  0.17502095  0.18487336    -0.77100
C11         C  0.06551791  0.15164109  0.22974980     0.83700
N12         N  0.04313475  0.10705967  0.22691034    -0.78800
C13         C  0.03121730  0.44048465  0.18404080     0.81200
N14         N  0.04184119  0.42824854  0.22997751    -0.77100
C15         C  0.06439924  0.40591234  0.23157190     0.83600
N16         N  0.07659704  0.39572557  0.18589487    -0.77100
C17         C  0.06685606  0.40710966  0.13931374     0.83700
N18         N  0.04425067  0.42942175  0.13914759    -0.78800
C19         C  0.43771662  0.46629959  0.17928467     0.81200
N20         N  0.46102148  0.01103600  0.17830684    -0.77100
C21         C  0.00582426  0.03422500  0.17929692     0.83600
N22         N  0.02723862  0.01083766  0.18155891    -0.77100
C23         C  0.00569299  0.46602893  0.18259182     0.83700
N24         N  0.46095926  0.44471457  0.18160119    -0.78800
N25         N  0.38628305  0.08684462  0.41418305    -0.02500
C26         C  0.35847639  0.05333490  0.44581981     0.00100
C27         C  0.38162328  0.05466036  0.99440092    -0.22800
C28         C  0.42008776  0.09180349  0.99389449    -0.23000
C29         C  0.41964594  0.11364468  0.44671722     0.00000
H30         H  0.36792116  0.03455837  0.02823604     0.13700
H31         H  0.44064069  0.10500751  0.02748315     0.13800
N32         N  0.07770490  0.18141826  0.08953018    -0.02500
C33         C  0.10457371  0.17512575  0.05660254     0.00100
C34         C  0.08046392  0.15581863  0.50453762    -0.22800
C35         C  0.04190992  0.15442635  0.50597151    -0.23000
C36         C  0.04305288  0.17394395  0.05866089     0.00000
H37         H  0.09394922  0.14979761  0.47019037     0.13700
H38         H  0.02104881  0.14737475  0.47270869     0.13800
N39         N  0.38414432  0.30014195  0.41338981    -0.02500
C40         C  0.41775163  0.30704238  0.44562390     0.00100
C41         C  0.41991363  0.32950068  0.99494578    -0.22800
C42         C  0.38211068  0.32972430  0.99413581    -0.23000
C43         C  0.35808496  0.30941159  0.44389143     0.00000
H44         H  0.43988651  0.33628470  0.02899953     0.13700
H45         H  0.36831435  0.33666012  0.02749264     0.13800
O46         O  0.46469494  0.19111086  0.42858561    -0.72000
O47         O  0.03630985  0.31166482  0.49508014    -0.73000
O48         O  0.03632497  0.22833443  0.49647146    -0.61600
O49         O  0.46407894  0.27593025  0.42789828    -0.70000
O50         O  0.42651733  0.25547222  0.00504407    -0.69600
O51         O  0.99675826  0.20552784  0.07464873    -0.60800
O52         O  0.99746009  0.29091378  0.07502712    -0.73300
O53         O  0.42608093  0.17178403  0.00438054    -0.72100
Cu54       Cu  0.50178213  0.25247226  0.45983374     1.04600
Cu55       Cu  0.46019156  0.23018263  0.04191612     1.04300
C56         C  0.43550016  0.16129739  0.45650225     0.94200
C57         C  0.02810751  0.32086203  0.04870691     0.93300
C58         C  0.02714445  0.20567280  0.04821938     0.85500
C59         C  0.43436257  0.27601615  0.45546864     0.91700
O60         O  0.16041214  0.23066123  0.49537084    -0.72000
O61         O  0.28075060  0.27998185  0.42750396    -0.73000
O62         O  0.19606792  0.19529907  0.42627096    -0.61600
O63         O  0.24339406  0.31431533  0.49607754    -0.70000
O64         O  0.26770176  0.29248831  0.07205131    -0.69600
O65         O  0.21827839  0.17230762  0.00280706    -0.60800
O66         O  0.30203788  0.25537389  0.00286179    -0.73300
O67         O  0.18243503  0.20729972  0.07278947    -0.72100
Cu68       Cu  0.21943049  0.25587411  0.45916812     1.04600
Cu69       Cu  0.24335957  0.23113871  0.03976492     1.04300
C70         C  0.15211844  0.20685793  0.04591549     0.94200
C71         C  0.31044158  0.27918144  0.45437694     0.93300
C72         C  0.19590333  0.16510973  0.45301727     0.85500
C73         C  0.26706985  0.32235223  0.04529722     0.91700
N74         N  0.07939178  0.39502987  0.09018496    -0.02500
C75         C  0.04465538  0.36834961  0.05933217     0.00100
C76         C  0.04347923  0.39268112  0.50264281    -0.22800
C77         C  0.08034236  0.43140997  0.50393901    -0.23000
C78         C  0.10506261  0.42948360  0.05828898     0.00000
H79         H  0.02384531  0.37901804  0.46847105     0.13700
H80         H  0.09387865  0.45225775  0.47064406     0.13800
N81         N  0.17274978  0.09078938  0.41197720    -0.02500
C82         C  0.16440762  0.11772325  0.44213207     0.00100
C83         C  0.14361676  0.09259245  0.99217721    -0.22800
C84         C  0.14327756  0.05453655  0.99207684    -0.23000
C85         C  0.16603616  0.05776437  0.44502199     0.00000
H86         H  0.13671662  0.10607490  0.02589003     0.13700
H87         H  0.13609650  0.03406572  0.02574211     0.13800
N88         N  0.29175044  0.39705172  0.08725400    -0.02500
C89         C  0.29832229  0.37007356  0.05493027     0.00100
C90         C  0.31769946  0.39416254  0.50523864    -0.22800
C91         C  0.31769800  0.43204535  0.50509983    -0.23000
C92         C  0.29936001  0.43161087  0.05603652     0.00000
H93         H  0.32452092  0.38056404  0.47158174     0.13700
H94         H  0.32450391  0.45231159  0.47132738     0.13800
O95         O  0.24379750  0.43841046  0.49549126    -0.72000
O96         O  0.19641050  0.01081448  0.42725343    -0.73000
O97         O  0.28099924  0.00958372  0.42726609    -0.61600
O98         O  0.16074617  0.43884376  0.49512223    -0.70000
O99         O  0.18260521  0.47728235  0.07304103    -0.69600
O100        O  0.30152485  0.04955949  0.00296892    -0.60800
O101        O  0.21749542  0.04849556  0.00315135    -0.73300
O102        O  0.26821293  0.47843171  0.07216441    -0.72100
Cu103      Cu  0.21965938  0.47299231  0.45910617     1.04600
Cu104      Cu  0.24319266  0.51496149  0.03992525     1.04300
C105        C  0.26795992  0.44804331  0.04560218     0.94200
C106        C  0.19675079  0.04078829  0.45472058     0.93300
C107        C  0.31106001  0.03873161  0.45498486     0.85500
C108        C  0.15263670  0.44687063  0.04654236     0.91700
C109        C  0.07828956  0.03775134  0.31954874     0.81200
N110        N  0.10259238  0.05297488  0.36418423    -0.77100
C111        C  0.14749279  0.07590439  0.36348204     0.83600
N112        N  0.16818712  0.08391856  0.31685988    -0.77100
C113        C  0.14556825  0.06958149  0.27167115     0.83700
N114        N  0.10084628  0.04657889  0.27363085    -0.78800
C115        C  0.43361259  0.03733987  0.32344297     0.81200
N116        N  0.42181930  0.05057243  0.36802574    -0.77100
C117        C  0.39941069  0.07329426  0.36636509     0.83600
N118        N  0.38898030  0.08267839  0.31908363    -0.77100
C119        C  0.39998013  0.07022801  0.27430165     0.83700
N120        N  0.42214556  0.04778316  0.27712962    -0.78800
C121        C  0.45934767  0.44390357  0.31971456     0.81200
N122        N  0.00415980  0.46737814  0.31879302    -0.77100
C123        C  0.02733590  0.01203423  0.32076904     0.83600
N124        N  0.00389095  0.03336434  0.32329644    -0.77100
C125        C  0.45919635  0.01186291  0.32417447     0.83700
N126        N  0.43772570  0.46708773  0.32230954    -0.78800
C127        C  0.43400428  0.39292737  0.31884099     0.81200
N128        N  0.42436117  0.36973815  0.27322776    -0.77100
C129        C  0.40187452  0.32492130  0.27221817     0.83600
N130        N  0.38901046  0.30298511  0.31803772    -0.77100
C131        C  0.39785893  0.32441319  0.36423511     0.83700
N132        N  0.42020214  0.36923529  0.36395226    -0.78800
N133        N  0.07594458  0.39473387  0.28192413    -0.02500
C134        C  0.11222002  0.41827973  0.31058816     0.00100
C135        C  0.10810863  0.40203288  0.35989273    -0.22800
C136        C  0.07020358  0.36430256  0.36076618    -0.23000
C137        C  0.05285126  0.35906915  0.31191393     0.00000
H138        H  0.13316439  0.41227631  0.38879559     0.13700
H139        H  0.06062726  0.33989721  0.39040157     0.13800
N140        N  0.38970488  0.08129283  0.22348825    -0.05300
C141        C  0.35413069  0.05814176  0.19360795     0.00100
C142        C  0.35934616  0.07570420  0.14489370    -0.22800
C143        C  0.39739773  0.11349495  0.14573339    -0.23000
C144        C  0.41378382  0.11737072  0.19492768     0.00000
H145        H  0.33496994  0.06606630  0.11515069     0.13700
H146        H  0.40802697  0.13854589  0.11675046     0.13800
N147        N  0.16789253  0.07977857  0.22132469    -0.02500
C148        C  0.18135685  0.11577468  0.19189974     0.00100
C149        C  0.19375619  0.11072298  0.14314877    -0.22800
C150        C  0.19287336  0.07238900  0.14359262    -0.23000
C151        C  0.18008123  0.05574559  0.19265053     0.00000
H152        H  0.20915482  0.13535374  0.11385573     0.13700
H153        H  0.20767087  0.06201247  0.11476038     0.13800
N154        N  0.29753324  0.39454216  0.27841578    -0.02500
C155        C  0.28531089  0.35838736  0.30719343     0.00100
C156        C  0.27292808  0.36257485  0.35633912    -0.22800
C157        C  0.27295763  0.40050764  0.35710323    -0.23000
C158        C  0.28525086  0.41788558  0.30832668     0.00000
H159        H  0.25817945  0.33757737  0.38533902     0.13700
H160        H  0.25827581  0.41030804  0.38676146     0.13800
O161        O  0.30140943  0.04329082  0.25687456    -0.72000
O162        O  0.18507086  0.47175670  0.31729499    -0.73000
O163        O  0.26643821  0.47211827  0.31646892    -0.61600
O164        O  0.21868349  0.04235703  0.25708680    -0.70000
O165        O  0.19971065  0.00230287  0.18601082    -0.69600
O166        O  0.24667589  0.43214647  0.24530511    -0.60800
O167        O  0.16419415  0.43176095  0.24615970    -0.73300
O168        O  0.28141620  0.00330076  0.18572185    -0.72100
Cu169      Cu  0.24360483  0.50885945  0.28946072     1.04600
Cu170      Cu  0.22220842  0.46580574  0.21338898     1.04300
C171        C  0.31065789  0.03248594  0.21385521     0.94200
C172        C  0.15543318  0.44296367  0.28931254     0.93300
C173        C  0.26693604  0.44319399  0.28815998     0.85500
C174        C  0.19862955  0.03101428  0.21402039     0.91700
N175        N  0.07687661  0.17296787  0.28066216    -0.02500
C176        C  0.11348883  0.18623131  0.30871277     0.00100
C177        C  0.10905259  0.19726775  0.35849378    -0.22800
C178        C  0.07017937  0.19529607  0.36041453    -0.23000
C179        C  0.05277155  0.18359133  0.31155387     0.00000
H180        H  0.13409623  0.21219572  0.38733286     0.13700
H181        H  0.05984699  0.20888126  0.39084832     0.13800
N182        N  0.39155976  0.30166220  0.22236318    -0.02500
C183        C  0.41545034  0.28859343  0.19476438     0.00100
C184        C  0.39851823  0.27408688  0.14619319    -0.22800
C185        C  0.36024589  0.27324459  0.14490856    -0.23000
C186        C  0.35547316  0.28741943  0.19265208     0.00000
H187        H  0.40880222  0.25838926  0.11848720     0.13700
H188        H  0.33545353  0.25688144  0.11597899     0.13800
O189        O  0.04028268  0.30617008  0.24941498    -0.72000
O190        O  0.46941937  0.18957102  0.18912044    -0.73000
O191        O  0.47013451  0.27071422  0.18951118    -0.61600
O192        O  0.03972046  0.22359318  0.24946000    -0.70000
O193        O  0.99944559  0.20371034  0.32037527    -0.69600
O194        O  0.42970660  0.25160628  0.26031976    -0.60800
O195        O  0.42891272  0.16909340  0.25987399    -0.73300
O196        O  0.00016321  0.28572319  0.32044872    -0.72100
Cu197      Cu  0.50655772  0.24830955  0.21708974     1.04600
Cu198      Cu  0.46311412  0.22679472  0.29286039     1.04300
C199        C  0.02871118  0.31528350  0.29201693     0.94200
C200        C  0.43979697  0.16023275  0.21659863     0.93300
C201        C  0.44099023  0.27138792  0.21710567     0.85500
C202        C  0.02820063  0.20292719  0.29202834     0.91700
O203        O  0.16529588  0.22412116  0.24379281    -0.72000
O204        O  0.28275128  0.26927412  0.18427637    -0.73000
O205        O  0.20113714  0.18879014  0.18416771    -0.61600
O206        O  0.24781168  0.30611768  0.24301146    -0.70000
O207        O  0.26715722  0.28566628  0.31436460    -0.69600
O208        O  0.22022568  0.16809501  0.25554820    -0.60800
O209        O  0.30271768  0.24964141  0.25582758    -0.73300
O210        O  0.18619379  0.20502687  0.31498398    -0.72100
Cu211      Cu  0.22350857  0.24785215  0.21128646     1.04600
Cu212      Cu  0.24483781  0.22634324  0.28760968     1.04300
C213        C  0.15658528  0.20442986  0.28712025     0.94200
C214        C  0.31201028  0.26963575  0.21280213     0.93300
C215        C  0.20016992  0.15921191  0.21248692     0.85500
C216        C  0.26766935  0.31514151  0.28616334     0.91700
C217        C  0.38299465  0.44498349  0.67349043     0.81200
N218        N  0.35859022  0.43352937  0.62871334    -0.77100
C219        C  0.31367194  0.41122171  0.62942296     0.83600
N220        N  0.29302899  0.40036148  0.67632302    -0.77100
C221        C  0.31578365  0.41096851  0.72173728     0.83700
N222        N  0.36051836  0.43302380  0.71958953    -0.78800
C223        C  0.02929640  0.08814021  0.67266902     0.81200
N224        N  0.04089541  0.11292595  0.62811280    -0.77100
C225        C  0.06434011  0.15785892  0.62935494     0.83600
N226        N  0.07618817  0.17800364  0.67648122    -0.77100
C227        C  0.06541796  0.15483173  0.72155963     0.83700
N228        N  0.04207019  0.11019896  0.71893162    -0.78800
C229        C  0.02621418  0.44216306  0.67241095     0.81200
N230        N  0.03580075  0.42914325  0.71834171    -0.77100
C231        C  0.05772890  0.40628609  0.72034784     0.83600
N232        N  0.07056061  0.39640105  0.67488393    -0.77100
C233        C  0.06188887  0.40853768  0.62808051     0.83700
N234        N  0.03979418  0.43143569  0.62756649    -0.78800
C235        C  0.43399838  0.46980365  0.67224753     0.81200
N236        N  0.45810863  0.01461043  0.67188458    -0.77100
C237        C  0.00289127  0.03716094  0.67134091     0.83600
N238        N  0.02367197  0.01313005  0.67135644    -0.77100
C239        C  0.00144983  0.46842980  0.67158056     0.83700
N240        N  0.45666863  0.44762267  0.67229842    -0.78800
N241        N  0.38637866  0.08815770  0.91865488    -0.02500
C242        C  0.35944658  0.05443590  0.95064105     0.00100
C243        C  0.37974093  0.05386084  0.49060830    -0.22800
C244        C  0.41781488  0.09147011  0.49121654    -0.23000
C245        C  0.42094443  0.11439281  0.95017510     0.00000
H246        H  0.36526969  0.03395612  0.52441744     0.13700
H247        H  0.43729666  0.10506162  0.52552756     0.13800
N248        N  0.07612670  0.18376791  0.58106513    -0.02500
C249        C  0.10295471  0.17744040  0.54826687     0.00100
C250        C  0.08190145  0.15363190  0.01291740    -0.22800
C251        C  0.04345595  0.15254306  0.01442238    -0.23000
C252        C  0.04153526  0.17599880  0.55007444     0.00000
H253        H  0.09525653  0.14756124  0.97850064     0.13700
H254        H  0.02266945  0.14573251  0.98114089     0.13800
N255        N  0.38716180  0.30041177  0.91896176    -0.02500
C256        C  0.42106047  0.30783794  0.95134362     0.00100
C257        C  0.41738117  0.32926622  0.48903242    -0.22800
C258        C  0.38043546  0.33114834  0.48771060    -0.23000
C259        C  0.36015296  0.30804219  0.95012614     0.00000
H260        H  0.43738144  0.33584507  0.52301692     0.13700
H261        H  0.36715975  0.33909386  0.52075898     0.13800
O262        O  0.46807533  0.19203711  0.93547867    -0.72000
O263        O  0.03938307  0.31082709  0.00605552    -0.73000
O264        O  0.03872833  0.22730329  0.00575296    -0.61600
O265        O  0.46841105  0.27721931  0.93609552    -0.70000
O266        O  0.42388934  0.25507077  0.49835574    -0.69600
O267        O  0.99634699  0.20832044  0.56714270    -0.60800
O268        O  0.99612840  0.29323530  0.56549297    -0.73300
O269        O  0.42483109  0.17197292  0.49926686    -0.72100
Cu270      Cu  0.50512571  0.25259908  0.96879670     1.04600
Cu271      Cu  0.45882961  0.23143538  0.53469432     1.04300
C272        C  0.43746610  0.16190608  0.96159927     0.94200
C273        C  0.02584957  0.32269616  0.53763329     0.93300
C274        C  0.02572259  0.20762027  0.53960156     0.85500
C275        C  0.43783660  0.27685383  0.96238596     0.91700
O276        O  0.16207739  0.22800372  0.00305179    -0.72000
O277        O  0.28245957  0.27773024  0.93389377    -0.73000
O278        O  0.19757788  0.19273216  0.93308754    -0.61600
O279        O  0.24521481  0.31188712  0.00303701    -0.70000
O280        O  0.26503091  0.29446679  0.56550555    -0.69600
O281        O  0.21688305  0.17498216  0.49595714    -0.60800
O282        O  0.29997431  0.25781180  0.49695363    -0.73300
O283        O  0.18037920  0.20953886  0.56515439    -0.72100
Cu284      Cu  0.22109180  0.25335044  0.96620631     1.04600
Cu285      Cu  0.24129363  0.23350167  0.53300566     1.04300
C286        C  0.15030611  0.20923609  0.53800206     0.94200
C287        C  0.31239726  0.27699104  0.96039201     0.93300
C288        C  0.19733804  0.16247173  0.95980130     0.85500
C289        C  0.26473570  0.32445137  0.53872093     0.91700
N290        N  0.07594288  0.39747732  0.57923516    -0.02500
C291        C  0.04262339  0.37051812  0.54671594     0.00100
C292        C  0.04409207  0.39066721  0.01608520    -0.22800
C293        C  0.08169794  0.42873284  0.01544705    -0.23000
C294        C  0.10238100  0.43236779  0.54825657     0.00000
H295        H  0.02304411  0.37713066  0.98298068     0.13700
H296        H  0.09429544  0.44927109  0.98175380     0.13800
N297        N  0.17311200  0.08824632  0.91679894    -0.02500
C298        C  0.16586727  0.11505442  0.94872711     0.00100
C299        C  0.14259375  0.09598748  0.48621575    -0.22800
C300        C  0.14434771  0.05901667  0.48848891    -0.23000
C301        C  0.16542121  0.05397468  0.94863273     0.00000
H302        H  0.13518756  0.10989700  0.51909364     0.13700
H303        H  0.13801230  0.03960888  0.52291749     0.13800
N304        N  0.28841515  0.39864150  0.58068505    -0.02500
C305        C  0.29594316  0.37193516  0.54907561     0.00100
C306        C  0.31948041  0.39227999  0.01085206    -0.22800
C307        C  0.32046536  0.43068216  0.01174631    -0.23000
C308        C  0.29593986  0.43271500  0.54886114     0.00000
H309        H  0.32559483  0.37862886  0.97673926     0.13700
H310        H  0.32724013  0.45120209  0.97820768     0.13800
O311        O  0.24632928  0.43669725  0.00311877    -0.72000
O312        O  0.19693344  0.00748716  0.93344354    -0.73000
O313        O  0.28211425  0.00785313  0.93381489    -0.61600
O314        O  0.16265387  0.43627004  0.00333011    -0.70000
O315        O  0.17994387  0.47942653  0.56518771    -0.69600
O316        O  0.30071963  0.05002767  0.49749935    -0.60800
O317        O  0.21798507  0.05138212  0.49738783    -0.73300
O318        O  0.26457801  0.47878148  0.56581901    -0.72100
Cu319      Cu  0.22126980  0.47059961  0.96633065     1.04600
Cu320      Cu  0.24143401  0.51638966  0.53359387     1.04300
C321        C  0.26474613  0.44905823  0.53844854     0.94200
C322        C  0.19666347  0.03756666  0.96005783     0.93300
C323        C  0.31189813  0.03825932  0.96053995     0.85500
C324        C  0.15017575  0.44942717  0.53794483     0.91700
C325        C  0.07746856  0.04073269  0.82502045     0.81200
N326        N  0.10233452  0.05298108  0.86951383    -0.77100
C327        C  0.14729240  0.07573915  0.86823315     0.83600
N328        N  0.16742486  0.08633463  0.82089558    -0.77100
C329        C  0.14413435  0.07490446  0.77575545     0.83700
N330        N  0.09946604  0.05211163  0.77863698    -0.78800
C331        C  0.43153471  0.03852316  0.82576191     0.81200
N332        N  0.42086655  0.05230941  0.87052356    -0.77100
C333        C  0.39790811  0.07436247  0.86986618     0.83600
N334        N  0.38557013  0.08267519  0.82298024    -0.77100
C335        C  0.39538272  0.06965226  0.77759677     0.83700
N336        N  0.41835150  0.04783944  0.77974871    -0.78800
C337        C  0.45902604  0.44605482  0.82685873     0.81200
N338        N  0.00375506  0.46984312  0.82654692    -0.77100
C339        C  0.02645321  0.01467456  0.82662500     0.83600
N340        N  0.00255899  0.03562489  0.82655674    -0.77100
C341        C  0.45772137  0.01360982  0.82677376     0.83700
N342        N  0.43693060  0.46883635  0.82673995    -0.78800
C343        C  0.43424274  0.39503782  0.82588505     0.81200
N344        N  0.42372720  0.37259124  0.77980969    -0.77100
C345        C  0.40220556  0.32790237  0.77756169     0.83600
N346        N  0.39076143  0.30507285  0.82303096    -0.77100
C347        C  0.40022853  0.32568031  0.87005345     0.83700
N348        N  0.42196893  0.37061633  0.87070846    -0.78800
N349        N  0.06891876  0.39541731  0.77110047    -0.02500
C350        C  0.10311930  0.42112339  0.80160652     0.00100
C351        C  0.09724654  0.40647326  0.85188771    -0.22800
C352        C  0.06080565  0.36755961  0.85189479    -0.23000
C353        C  0.04595545  0.36020442  0.80166482     0.00000
H354        H  0.12084916  0.41856840  0.88269346     0.13700
H355        H  0.05089472  0.34415347  0.88282922     0.13800
N356        N  0.38431065  0.08059008  0.72680146    -0.05300
C357        C  0.34837868  0.05818843  0.69696110     0.00100
C358        C  0.35429019  0.07458531  0.64753112    -0.22800
C359        C  0.39322865  0.11101024  0.64732359    -0.23000
C360        C  0.40941619  0.11541798  0.69668361     0.00000
H361        H  0.33010009  0.06525252  0.61761226     0.13700
H362        H  0.40471240  0.13536434  0.61735526     0.13800
N363        N  0.16544032  0.08460261  0.72450577    -0.02500
C364        C  0.17910621  0.12001416  0.69376845     0.00100
C365        C  0.18672566  0.11224856  0.64377287    -0.22800
C366        C  0.18255301  0.07252652  0.64403086    -0.23000
C367        C  0.17298496  0.05797801  0.69432117     0.00000
H368        H  0.20097063  0.13554769  0.61284080     0.13700
H369        H  0.19357476  0.05965835  0.61352110     0.13800
N370        N  0.29367410  0.39864015  0.77241599    -0.02500
C371        C  0.28449833  0.36355331  0.80181203     0.00100
C372        C  0.27204580  0.36695089  0.85123320    -0.22800
C373        C  0.26812301  0.40264313  0.85153786    -0.23000
C374        C  0.27871948  0.41969544  0.80245992     0.00000
H375        H  0.25934853  0.34214178  0.88064650     0.13700
H376        H  0.25234822  0.41095018  0.88141127     0.13800
O377        O  0.29458705  0.04391354  0.75892553    -0.72000
O378        O  0.17617820  0.47219002  0.81233999    -0.73000
O379        O  0.25667921  0.47091767  0.81334917    -0.61600
O380        O  0.21232821  0.04414075  0.75699094    -0.70000
O381        O  0.19378256  0.00571314  0.68458072    -0.69600
O382        O  0.23902619  0.43334692  0.74027233    -0.60800
O383        O  0.15677082  0.43369863  0.73996785    -0.73300
O384        O  0.27538020  0.00635481  0.68586247    -0.72100
Cu385      Cu  0.23566893  0.50916144  0.78796118     1.04600
Cu386      Cu  0.21554738  0.46830583  0.71008870     1.04300
C387        C  0.30442191  0.03374515  0.71588686     0.94200
C388        C  0.14709432  0.44462173  0.78269870     0.93300
C389        C  0.25868997  0.44361388  0.78351172     0.85500
C390        C  0.19235069  0.03356773  0.71388433     0.91700
N391        N  0.07704431  0.17640098  0.77248831    -0.02500
C392        C  0.11340270  0.18942498  0.80116048     0.00100
C393        C  0.10851649  0.19987104  0.85104970    -0.22800
C394        C  0.06982764  0.19807469  0.85260767    -0.23000
C395        C  0.05278999  0.18668282  0.80357193     0.00000
H396        H  0.13328617  0.21436883  0.88037859     0.13700
H397        H  0.05917297  0.21123670  0.88318888     0.13800
N398        N  0.39144955  0.30607502  0.72660015    -0.02500
C399        C  0.41414863  0.29268893  0.69722418     0.00100
C400        C  0.40033450  0.28549240  0.64658200    -0.22800
C401        C  0.36484693  0.28975962  0.64489397    -0.23000
C402        C  0.35816307  0.29872251  0.69478451     0.00000
H403        H  0.41043113  0.27158491  0.61630460     0.13700
H404        H  0.34193893  0.27889957  0.61333931     0.13800
O405        O  0.03540387  0.30648723  0.74081286    -0.72000
O406        O  0.46383277  0.18755458  0.68711440    -0.73000
O407        O  0.46322329  0.26817510  0.68643882    -0.61600
O408        O  0.03707546  0.22487148  0.74171251    -0.70000
O409        O  0.99895613  0.20551237  0.81438288    -0.69600
O410        O  0.42581977  0.25119793  0.75961201    -0.60800
O411        O  0.42552803  0.16865400  0.75964707    -0.73300
O412        O  0.99813006  0.28646627  0.81407310    -0.72100
Cu413      Cu  0.50126750  0.24729359  0.71149708     1.04600
Cu414      Cu  0.46066380  0.22706441  0.78955745     1.04300
C415        C  0.02437269  0.31588462  0.78362846     0.94200
C416        C  0.43547971  0.15879289  0.71646057     0.93300
C417        C  0.43647007  0.27099442  0.71638526     0.85500
C418        C  0.02713494  0.20490531  0.78475652     0.91700
O419        O  0.16589144  0.22811329  0.73736250    -0.72000
O420        O  0.28463968  0.27588666  0.68249764    -0.73000
O421        O  0.20377123  0.19371970  0.68169784    -0.61600
O422        O  0.24737284  0.31093105  0.73810208    -0.70000
O423        O  0.26698627  0.29140330  0.81005095    -0.69600
O424        O  0.22161105  0.17365528  0.75455867    -0.60800
O425        O  0.30389879  0.25617049  0.75454744    -0.73300
O426        O  0.18639401  0.21046840  0.81003380    -0.72100
Cu427      Cu  0.22477651  0.25285521  0.70721475     1.04600
Cu428      Cu  0.24553662  0.23219727  0.78471265     1.04300
C429        C  0.15686402  0.20859942  0.78076025     0.94200
C430        C  0.31372762  0.27741429  0.71237090     0.93300
C431        C  0.20123098  0.16430552  0.71177809     0.85500
C432        C  0.26728145  0.32042116  0.78123036     0.91700
C433        C  0.38666321  0.94101057  0.17981428     0.81200
N434        N  0.36224657  0.93074039  0.13498939    -0.77100
C435        C  0.31725574  0.90853794  0.13575985     0.83600
N436        N  0.29673563  0.89675309  0.18261258    -0.77100
C437        C  0.31953933  0.90625853  0.22785804     0.83700
N438        N  0.36419364  0.92821580  0.22577341    -0.78800
C439        C  0.03132511  0.58512404  0.18057311     0.81200
N440        N  0.04296508  0.61007513  0.13607925    -0.77100
C441        C  0.06562592  0.65506320  0.13760555     0.83600
N442        N  0.07648484  0.67496510  0.18487216    -0.77100
C443        C  0.06555061  0.65159310  0.22975468     0.83700
N444        N  0.04316003  0.60701018  0.22692354    -0.78800
C445        C  0.03127288  0.94055710  0.18405223     0.81200
N446        N  0.04195236  0.92838518  0.22999712    -0.77100
C447        C  0.06450844  0.90604710  0.23160588     0.83600
N448        N  0.07665425  0.89579830  0.18593196    -0.77100
C449        C  0.06686445  0.90712461  0.13934128     0.83700
N450        N  0.04425566  0.92943390  0.13916365    -0.78800
C451        C  0.43766808  0.96628773  0.17920816     0.81200
N452        N  0.46107203  0.51104837  0.17838055    -0.77100
C453        C  0.00579396  0.53416833  0.17931989     0.83600
N454        N  0.02720062  0.51077333  0.18156829    -0.77100
C455        C  0.00573886  0.96609331  0.18258940     0.83700
N456        N  0.46091286  0.94470451  0.18152793    -0.78800
N457        N  0.38617639  0.58684397  0.41435039    -0.02500
C458        C  0.35834098  0.55333413  0.44597095     0.00100
C459        C  0.38164869  0.55463144  0.99442964    -0.22800
C460        C  0.42010440  0.59178480  0.99394056    -0.23000
C461        C  0.41951730  0.61364280  0.44691713     0.00000
H462        H  0.36793832  0.53453123  0.02826494     0.13700
H463        H  0.44064076  0.60499514  0.02754155     0.13800
N464        N  0.07762267  0.68133935  0.08952723    -0.02500
C465        C  0.10447713  0.67504750  0.05657649     0.00100
C466        C  0.08052819  0.65588839  0.50450142    -0.22800
C467        C  0.04198487  0.65452110  0.50587981    -0.23000
C468        C  0.04295503  0.67385670  0.05868406     0.00000
H469        H  0.09403336  0.64986822  0.47017346     0.13700
H470        H  0.02114477  0.64747937  0.47259877     0.13800
N471        N  0.38420472  0.80020193  0.41342200    -0.02500
C472        C  0.41780285  0.80711913  0.44567720     0.00100
C473        C  0.41987729  0.82945431  0.99506530    -0.22800
C474        C  0.38205781  0.82964620  0.99430283    -0.23000
C475        C  0.35812559  0.80946193  0.44389834     0.00000
H476        H  0.43985806  0.83622346  0.02910981     0.13700
H477        H  0.36825850  0.83654654  0.02768440     0.13800
O478        O  0.46461209  0.69109515  0.42868660    -0.72000
O479        O  0.03628261  0.81169302  0.49496433    -0.73000
O480        O  0.03627000  0.72834873  0.49638057    -0.61600
O481        O  0.46408321  0.77595718  0.42794714    -0.70000
O482        O  0.42647632  0.75543104  0.00508545    -0.69600
O483        O  0.99667056  0.70545030  0.07465368    -0.60800
O484        O  0.99738472  0.79084477  0.07505720    -0.73300
O485        O  0.42606760  0.67175010  0.00441696    -0.72100
Cu486      Cu  0.50176555  0.75247658  0.45986961     1.04600
Cu487      Cu  0.46016390  0.73015226  0.04195058     1.04300
C488        C  0.43542667  0.66131792  0.45665078     0.94200
C489        C  0.02805598  0.82080289  0.04877273     0.93300
C490        C  0.02706584  0.70559878  0.04824134     0.85500
C491        C  0.43441056  0.77609794  0.45554920     0.91700
O492        O  0.16046667  0.73073985  0.49539668    -0.72000
O493        O  0.28079375  0.78002328  0.42751484    -0.73000
O494        O  0.19609036  0.69536257  0.42627735    -0.61600
O495        O  0.24347989  0.81436731  0.49611475    -0.70000
O496        O  0.26758762  0.79242254  0.07209518    -0.69600
O497        O  0.21820643  0.67224157  0.00285968    -0.60800
O498        O  0.30196001  0.75531992  0.00295934    -0.73300
O499        O  0.18233075  0.70722737  0.07280351    -0.72100
Cu500      Cu  0.21948247  0.75593290  0.45918956     1.04600
Cu501      Cu  0.24326586  0.73107317  0.03981775     1.04300
C502        C  0.15202227  0.70676796  0.04589579     0.94200
C503        C  0.31048422  0.77921224  0.45437607     0.93300
C504        C  0.19590496  0.66515691  0.45300914     0.85500
C505        C  0.26695944  0.82228005  0.04532313     0.91700
N506        N  0.07935474  0.89499054  0.09021543    -0.02500
C507        C  0.04458819  0.86828962  0.05940908     0.00100
C508        C  0.04372618  0.89282878  0.50258889    -0.22800
C509        C  0.08058096  0.93155981  0.50398009    -0.23000
C510        C  0.10500492  0.92941633  0.05827036     0.00000
H511        H  0.02411865  0.87921056  0.46838609     0.13700
H512        H  0.09415206  0.95244949  0.47072401     0.13800
N513        N  0.17268346  0.59082664  0.41197563    -0.02500
C514        C  0.16437164  0.61778334  0.44212273     0.00100
C515        C  0.14359183  0.59249891  0.99216917    -0.22800
C516        C  0.14326599  0.55444942  0.99204107    -0.23000
C517        C  0.16592143  0.55778533  0.44501552     0.00000
H518        H  0.13667547  0.60595997  0.02588976     0.13700
H519        H  0.13608672  0.53396668  0.02569474     0.13800
N520        N  0.29167264  0.89700762  0.08723001    -0.02500
C521        C  0.29822500  0.87000370  0.05492779     0.00100
C522        C  0.31784823  0.89416482  0.50526112    -0.22800
C523        C  0.31787186  0.93206114  0.50510692    -0.23000
C524        C  0.29928158  0.93154976  0.05597850     0.00000
H525        H  0.32465167  0.88054881  0.47160908     0.13700
H526        H  0.32468419  0.95231922  0.47132650     0.13800
O527        O  0.24397552  0.93844183  0.49549499    -0.72000
O528        O  0.19629164  0.51083242  0.42724561    -0.73000
O529        O  0.28087544  0.50958920  0.42731845    -0.61600
O530        O  0.16091791  0.93885735  0.49518612    -0.70000
O531        O  0.18254764  0.97723360  0.07303282    -0.69600
O532        O  0.30156880  0.54957069  0.00295377    -0.60800
O533        O  0.21753996  0.54850455  0.00311537    -0.73300
O534        O  0.26815219  0.97838366  0.07213789    -0.72100
Cu535      Cu  0.21980748  0.97299746  0.45911388     1.04600
Cu536      Cu  0.24314091  0.01493192  0.03992997     1.04300
C537        C  0.26790251  0.94801004  0.04554823     0.94200
C538        C  0.19660864  0.54078279  0.45473760     0.93300
C539        C  0.31091426  0.53872552  0.45507260     0.85500
C540        C  0.15258416  0.94683420  0.04651462     0.91700
C541        C  0.07824394  0.53783292  0.31952104     0.81200
N542        N  0.10253834  0.55305915  0.36416065    -0.77100
C543        C  0.14743830  0.57596670  0.36347408     0.83600
N544        N  0.16814449  0.58395972  0.31686466    -0.77100
C545        C  0.14553929  0.56962126  0.27166971     0.83700
N546        N  0.10081327  0.54663340  0.27361090    -0.78800
C547        C  0.43347708  0.53731390  0.32358406     0.81200
N548        N  0.42169644  0.55055241  0.36817745    -0.77100
C549        C  0.39931044  0.57330013  0.36652797     0.83600
N550        N  0.38889069  0.58270093  0.31924986    -0.77100
C551        C  0.39988101  0.57024805  0.27446272     0.83700
N552        N  0.42202417  0.54778184  0.27727902    -0.78800
C553        C  0.45949063  0.94394352  0.31971195     0.81200
N554        N  0.00421265  0.96729233  0.31883392    -0.77100
C555        C  0.02728649  0.51211997  0.32074361     0.83600
N556        N  0.00384317  0.53345089  0.32332989    -0.77100
C557        C  0.45905342  0.51182455  0.32428023     0.83700
N558        N  0.43786977  0.96712825  0.32223813    -0.78800
C559        C  0.43413662  0.89297169  0.31885852     0.81200
N560        N  0.42447860  0.86977685  0.27325160    -0.77100
C561        C  0.40196320  0.82496234  0.27225091     0.83600
N562        N  0.38908027  0.80303231  0.31807245    -0.77100
C563        C  0.39793845  0.82446706  0.36426519     0.83700
N564        N  0.42031372  0.86928894  0.36397471    -0.78800
N565        N  0.07609388  0.89492189  0.28196847    -0.02500
C566        C  0.11235065  0.91854972  0.31063139     0.00100
C567        C  0.10826667  0.90234364  0.35995504    -0.22800
C568        C  0.07042232  0.86455318  0.36083621    -0.23000
C569        C  0.05306903  0.85925405  0.31197666     0.00000
H570        H  0.13332868  0.91264837  0.38886122     0.13700
H571        H  0.06089768  0.84016960  0.39049057     0.13800
N572        N  0.38962189  0.58133494  0.22365481    -0.05300
C573        C  0.35404034  0.55821739  0.19377296     0.00100
C574        C  0.35927183  0.57579018  0.14506344    -0.22800
C575        C  0.39735820  0.61354554  0.14589593    -0.23000
C576        C  0.41374645  0.61739668  0.19508531     0.00000
H577        H  0.33490213  0.56617215  0.11531504     0.13700
H578        H  0.40802360  0.63859564  0.11690784     0.13800
N579        N  0.16788992  0.57978074  0.22134027    -0.02500
C580        C  0.18149098  0.61580543  0.19192490     0.00100
C581        C  0.19391512  0.61072881  0.14320230    -0.22800
C582        C  0.19289495  0.57233116  0.14365257    -0.23000
C583        C  0.18001533  0.55568232  0.19269496     0.00000
H584        H  0.20940154  0.63536175  0.11392847     0.13700
H585        H  0.20767489  0.56190741  0.11485242     0.13800
N586        N  0.29752004  0.89456282  0.27839681    -0.02500
C587        C  0.28528513  0.85840833  0.30718006     0.00100
C588        C  0.27291539  0.86260909  0.35632843    -0.22800
C589        C  0.27297754  0.90055901  0.35709243    -0.23000
C590        C  0.28527183  0.91793043  0.30831399     0.00000
H591        H  0.25816997  0.83761954  0.38533594     0.13700
H592        H  0.25831869  0.91038197  0.38675783     0.13800
O593        O  0.30127710  0.54324342  0.25702949    -0.72000
O594        O  0.18523051  0.97197560  0.31727638    -0.73000
O595        O  0.26654866  0.97223189  0.31642467    -0.61600
O596        O  0.21850875  0.54221304  0.25720300    -0.70000
O597        O  0.19960152  0.50220863  0.18608855    -0.69600
O598        O  0.24669418  0.93219535  0.24531248    -0.60800
O599        O  0.16427763  0.93192692  0.24618564    -0.73300
O600        O  0.28135707  0.50332204  0.18582074    -0.72100
Cu601      Cu  0.24375515  0.00899551  0.28937407     1.04600
Cu602      Cu  0.22227429  0.96587661  0.21335509     1.04300
C603        C  0.31056547  0.53250324  0.21399243     0.94200
C604        C  0.15555900  0.94318349  0.28932782     0.93300
C605        C  0.26698548  0.94326178  0.28814527     0.85500
C606        C  0.19849776  0.53090398  0.21410699     0.91700
N607        N  0.07695421  0.67292584  0.28066616    -0.02500
C608        C  0.11355848  0.68612088  0.30870722     0.00100
C609        C  0.10913806  0.69711936  0.35851484    -0.22800
C610        C  0.07029679  0.69521067  0.36046342    -0.23000
C611        C  0.05289186  0.68357946  0.31159507     0.00000
H612        H  0.13418434  0.71200795  0.38735230     0.13700
H613        H  0.06000127  0.70880554  0.39092562     0.13800
N614        N  0.39163957  0.80170054  0.22240142    -0.02500
C615        C  0.41550184  0.78858639  0.19482742     0.00100
C616        C  0.39857233  0.77407932  0.14625606    -0.22800
C617        C  0.36032961  0.77329801  0.14494226    -0.23000
C618        C  0.35556751  0.78749790  0.19267525     0.00000
H619        H  0.40883626  0.75835328  0.11856623     0.13700
H620        H  0.33553824  0.75694900  0.11600895     0.13800
O621        O  0.04054706  0.80632916  0.24952196    -0.72000
O622        O  0.46945314  0.68956807  0.18924970    -0.73000
O623        O  0.47017756  0.77070631  0.18958522    -0.61600
O624        O  0.03995749  0.72371996  0.24957583    -0.70000
O625        O  0.99968986  0.70385558  0.32049777    -0.69600
O626        O  0.42978753  0.75165100  0.26042500    -0.60800
O627        O  0.42897374  0.66913874  0.26002633    -0.73300
O628        O  0.00044491  0.78589458  0.32057006    -0.72100
Cu629      Cu  0.50661480  0.74833016  0.21716413     1.04600
Cu630      Cu  0.46320618  0.72684801  0.29296372     1.04300
C631        C  0.02897232  0.81545175  0.29211694     0.94200
C632        C  0.43982268  0.66025225  0.21674564     0.93300
C633        C  0.44104685  0.77139686  0.21718602     0.85500
C634        C  0.02840771  0.70302642  0.29212446     0.91700
O635        O  0.16534966  0.72406241  0.24377960    -0.72000
O636        O  0.28284178  0.76934375  0.18429577    -0.73000
O637        O  0.20127409  0.68881479  0.18416873    -0.61600
O638        O  0.24781664  0.80611838  0.24301054    -0.70000
O639        O  0.26719398  0.78570409  0.31436867    -0.69600
O640        O  0.22037126  0.66813918  0.25555935    -0.60800
O641        O  0.30282007  0.74972810  0.25585108    -0.73300
O642        O  0.18628393  0.70500930  0.31497305    -0.72100
Cu643      Cu  0.22358042  0.74786163  0.21128749     1.04600
Cu644      Cu  0.24493442  0.72638480  0.28761703     1.04300
C645        C  0.15665638  0.70436626  0.28710421     0.94200
C646        C  0.31210634  0.76971925  0.21282466     0.93300
C647        C  0.20031398  0.65924577  0.21249835     0.85500
C648        C  0.26767254  0.81516152  0.28616360     0.91700
C649        C  0.38316299  0.94502295  0.67349561     0.81200
N650        N  0.35875768  0.93355386  0.62871872    -0.77100
C651        C  0.31383919  0.91126042  0.62943051     0.83600
N652        N  0.29319626  0.90042609  0.67632917    -0.77100
C653        C  0.31594943  0.91104928  0.72174236     0.83700
N654        N  0.36068535  0.93309799  0.71959612    -0.78800
C655        C  0.02918874  0.58818902  0.67260395     0.81200
N656        N  0.04086098  0.61297934  0.62804897    -0.77100
C657        C  0.06430086  0.65791231  0.62930247     0.83600
N658        N  0.07607438  0.67805078  0.67643716    -0.77100
C659        C  0.06522960  0.65487239  0.72151280     0.83700
N660        N  0.04188293  0.61024145  0.71887458    -0.78800
C661        C  0.02629300  0.94209772  0.67245046     0.81200
N662        N  0.03584098  0.92902120  0.71836720    -0.77100
C663        C  0.05778362  0.90617636  0.72034837     0.83600
N664        N  0.07065683  0.89635082  0.67487329    -0.77100
C665        C  0.06201176  0.90853265  0.62808351     0.83700
N666        N  0.03991384  0.93142734  0.62759640    -0.78800
C667        C  0.43416869  0.96984299  0.67224968     0.81200
N668        N  0.45794145  0.51457139  0.67189563    -0.77100
C669        C  0.00279364  0.53721166  0.67127026     0.83600
N670        N  0.02358254  0.51318882  0.67128536    -0.77100
C671        C  0.00153221  0.96837066  0.67164141     0.83700
N672        N  0.45684354  0.94766540  0.67230142    -0.78800
N673        N  0.38641882  0.58812608  0.91868093    -0.02500
C674        C  0.35948230  0.55440019  0.95065598     0.00100
C675        C  0.37956286  0.55386651  0.49080012    -0.22800
C676        C  0.41763379  0.59147648  0.49144454    -0.23000
C677        C  0.42096710  0.61437087  0.95021536     0.00000
H678        H  0.36506037  0.53396088  0.52460202     0.13700
H679        H  0.43708697  0.60506780  0.52577419     0.13800
N680        N  0.07614456  0.68382772  0.58101603    -0.02500
C681        C  0.10299136  0.67749374  0.54825503     0.00100
C682        C  0.08179112  0.65355398  0.01289980    -0.22800
C683        C  0.04334060  0.65245168  0.01443939    -0.23000
C684        C  0.04158280  0.67607714  0.54998252     0.00000
H685        H  0.09513495  0.64748369  0.97847010     0.13700
H686        H  0.02254100  0.64563892  0.98116978     0.13800
N687        N  0.38711683  0.80040681  0.91907313    -0.02500
C688        C  0.42102937  0.80782730  0.95142918     0.00100
C689        C  0.41741529  0.82935197  0.48906718    -0.22800
C690        C  0.38045973  0.83121431  0.48771954    -0.23000
C691        C  0.36010409  0.80800136  0.95027440     0.00000
H692        H  0.43741049  0.83594687  0.52306234     0.13700
H693        H  0.36716807  0.83915511  0.52075504     0.13800
O694        O  0.46805000  0.69201852  0.93550384    -0.72000
O695        O  0.03935699  0.81078138  0.00613038    -0.73000
O696        O  0.03867616  0.72724643  0.00578872    -0.61600
O697        O  0.46837674  0.77720496  0.93614397    -0.70000
O698        O  0.42396429  0.75519516  0.49846525    -0.69600
O699        O  0.99642496  0.70841535  0.56716081    -0.60800
O700        O  0.99626513  0.79335142  0.56551072    -0.73300
O701        O  0.42481190  0.67204812  0.49941744    -0.72100
Cu702      Cu  0.50509422  0.75257554  0.96882811     1.04600
Cu703      Cu  0.45888221  0.73153563  0.53478782     1.04300
C704        C  0.43745850  0.66187924  0.96163428     0.94200
C705        C  0.02593729  0.82277540  0.53756421     0.93300
C706        C  0.02574228  0.70767799  0.53954113     0.85500
C707        C  0.43780001  0.77683111  0.96244025     0.91700
O708        O  0.16199270  0.72789965  0.00302158    -0.72000
O709        O  0.28241789  0.77768338  0.93396647    -0.73000
O710        O  0.19755434  0.69266430  0.93309746    -0.61600
O711        O  0.24510899  0.81180425  0.00305893    -0.70000
O712        O  0.26510258  0.79447903  0.56552230    -0.69600
O713        O  0.21689543  0.67500750  0.49593956    -0.60800
O714        O  0.30001612  0.75782443  0.49694079    -0.73300
O715        O  0.18041606  0.70957049  0.56515400    -0.72100
Cu716      Cu  0.22102764  0.75327438  0.96622399     1.04600
Cu717      Cu  0.24133371  0.73352062  0.53300242     1.04300
C718        C  0.15034936  0.70929331  0.53801235     0.94200
C719        C  0.31234251  0.77694843  0.96049788     0.93300
C720        C  0.19729864  0.66240481  0.95982983     0.85500
C721        C  0.26483264  0.82448124  0.53874881     0.91700
N722        N  0.07610192  0.89753003  0.57922363    -0.02500
C723        C  0.04281144  0.87061788  0.54663913     0.00100
C724        C  0.04399351  0.89058396  0.01615341    -0.22800
C725        C  0.08161123  0.92863654  0.01544654    -0.23000
C726        C  0.10257838  0.93245809  0.54831217     0.00000
H727        H  0.02291829  0.87702830  0.98307491     0.13700
H728        H  0.09418462  0.94915019  0.98172999     0.13800
N729        N  0.17311083  0.58819938  0.91678810    -0.02500
C730        C  0.16584822  0.61498515  0.94873476     0.00100
C731        C  0.14253214  0.59605691  0.48619822    -0.22800
C732        C  0.14422861  0.55905537  0.48846944    -0.23000
C733        C  0.16542760  0.55391803  0.94859861     0.00000
H734        H  0.13514439  0.60998249  0.51907647     0.13700
H735        H  0.13786166  0.53963832  0.52289507     0.13800
N736        N  0.28857907  0.89868215  0.58069774    -0.02500
C737        C  0.29608125  0.87195317  0.54910197     0.00100
C738        C  0.31937487  0.89218078  0.01083021    -0.22800
C739        C  0.32036593  0.93058588  0.01168700    -0.23000
C740        C  0.29612182  0.93275444  0.54886450     0.00000
H741        H  0.32547617  0.87850603  0.97673157     0.13700
H742        H  0.32713668  0.95108738  0.97813078     0.13800
O743        O  0.24628735  0.93669663  0.00305189    -0.72000
O744        O  0.19696614  0.50745143  0.93344509    -0.73000
O745        O  0.28215056  0.50781781  0.93384001    -0.61600
O746        O  0.16260872  0.93626705  0.00328365    -0.70000
O747        O  0.18015129  0.97950081  0.56520001    -0.69600
O748        O  0.30053903  0.55000103  0.49757759    -0.60800
O749        O  0.21780461  0.55134121  0.49743121    -0.73300
O750        O  0.26478263  0.97884429  0.56579679    -0.72100
Cu751      Cu  0.22123059  0.97061689  0.96629495     1.04600
Cu752      Cu  0.24162945  0.01644221  0.53356075     1.04300
C753        C  0.26493827  0.94910720  0.53844149     0.94200
C754        C  0.19669488  0.53754302  0.96003205     0.93300
C755        C  0.31193717  0.53823924  0.96054554     0.85500
C756        C  0.15036800  0.94947822  0.53799665     0.91700
C757        C  0.07748424  0.54070259  0.82497928     0.81200
N758        N  0.10234090  0.55293368  0.86948121    -0.77100
C759        C  0.14729950  0.57570207  0.86821581     0.83600
N760        N  0.16744228  0.58632140  0.82088629    -0.77100
C761        C  0.14416377  0.57491037  0.77573843     0.83700
N762        N  0.09949374  0.55211207  0.77860260    -0.78800
C763        C  0.43158558  0.53849597  0.82578735     0.81200
N764        N  0.42093606  0.55229944  0.87055187    -0.77100
C765        C  0.39796256  0.57433916  0.86989698     0.83600
N766        N  0.38559723  0.58262496  0.82301622    -0.77100
C767        C  0.39538757  0.56958325  0.77763493     0.83700
N768        N  0.41836215  0.54777620  0.77978026    -0.78800
C769        C  0.45892950  0.94605348  0.82693859     0.81200
N770        N  0.00372366  0.96989175  0.82663803    -0.77100
C771        C  0.02646603  0.51462578  0.82656892     0.83600
N772        N  0.00255145  0.53555686  0.82653155    -0.77100
C773        C  0.45778951  0.51359718  0.82678273     0.83700
N774        N  0.43684814  0.96884863  0.82678318    -0.78800
C775        C  0.43412745  0.89503410  0.82598699     0.81200
N776        N  0.42355351  0.87258142  0.77991551    -0.77100
C777        C  0.40201946  0.82789301  0.77767302     0.83600
N778        N  0.39062046  0.80506796  0.82314427    -0.77100
C779        C  0.40014277  0.82567832  0.87016554     0.83700
N780        N  0.42189741  0.87061662  0.87081716    -0.78800
N781        N  0.06890864  0.89521877  0.77108949    -0.02500
C782        C  0.10319482  0.92075006  0.80158752     0.00100
C783        C  0.09731724  0.90602051  0.85182838    -0.22800
C784        C  0.06071309  0.86724579  0.85183861    -0.23000
C785        C  0.04580415  0.86002190  0.80163192     0.00000
H786        H  0.12094901  0.91798100  0.88260379     0.13700
H787        H  0.05070291  0.84379652  0.88273406     0.13800
N788        N  0.38426381  0.58047487  0.72684639    -0.05300
C789        C  0.34838869  0.55790986  0.69696696     0.00100
C790        C  0.35426879  0.57428939  0.64752768    -0.22800
C791        C  0.39308163  0.61086785  0.64737177    -0.23000
C792        C  0.40924861  0.61536123  0.69675288     0.00000
H793        H  0.33008554  0.56485064  0.61758206     0.13700
H794        H  0.40447588  0.63521702  0.61740128     0.13800
N795        N  0.16548886  0.58468021  0.72449767    -0.02500
C796        C  0.17901632  0.62008165  0.69377922     0.00100
C797        C  0.18674978  0.61240702  0.64379090    -0.22800
C798        C  0.18280880  0.57278192  0.64404297    -0.23000
C799        C  0.17322637  0.55818623  0.69431040     0.00000
H800        H  0.20093872  0.63573905  0.61288293     0.13700
H801        H  0.19394410  0.56001292  0.61354173     0.13800
N802        N  0.29383699  0.89878309  0.77242108    -0.02500
C803        C  0.28450790  0.86365959  0.80182774     0.00100
C804        C  0.27215934  0.86716310  0.85126463    -0.22800
C805        C  0.26846283  0.90298478  0.85157347    -0.23000
C806        C  0.27905687  0.91998723  0.80246915     0.00000
H807        H  0.25938363  0.84237147  0.88069615     0.13700
H808        H  0.25277847  0.91139531  0.88145526     0.13800
O809        O  0.29462694  0.54373101  0.75893174    -0.72000
O810        O  0.17618432  0.97200922  0.81231848    -0.73000
O811        O  0.25686093  0.97109362  0.81331702    -0.61600
O812        O  0.21252360  0.54427497  0.75697090    -0.70000
O813        O  0.19389931  0.50583603  0.68456649    -0.69600
O814        O  0.23931191  0.93353645  0.74023499    -0.60800
O815        O  0.15688349  0.93354023  0.73992643    -0.73300
O816        O  0.27534386  0.50615305  0.68588622    -0.72100
Cu817      Cu  0.23565010  0.00917265  0.78795194     1.04600
Cu818      Cu  0.21563215  0.96833582  0.71006550     1.04300
C819        C  0.30442429  0.53351229  0.71590202     0.94200
C820        C  0.14715230  0.94438473  0.78267163     0.93300
C821        C  0.25896736  0.94384219  0.78348201     0.85500
C822        C  0.19254157  0.53373123  0.71386637     0.91700
N823        N  0.07679398  0.67643321  0.77244599    -0.02500
C824        C  0.11315629  0.68954164  0.80114041     0.00100
C825        C  0.10822684  0.69998446  0.85101267    -0.22800
C826        C  0.06948671  0.69807801  0.85254366    -0.23000
C827        C  0.05246652  0.68663561  0.80350457     0.00000
H828        H  0.13298104  0.71452574  0.88035368     0.13700
H829        H  0.05877184  0.71119917  0.88310752     0.13800
N830        N  0.39123329  0.80606163  0.72671543    -0.02500
C831        C  0.41392924  0.79268978  0.69731131     0.00100
C832        C  0.40011009  0.78551696  0.64667153    -0.22800
C833        C  0.36462654  0.78979135  0.64500881    -0.23000
C834        C  0.35794792  0.79873272  0.69491183     0.00000
H835        H  0.41020556  0.77162625  0.61637234     0.13700
H836        H  0.34171949  0.77895508  0.61345417     0.13800
O837        O  0.03500983  0.80629509  0.74069377    -0.72000
O838        O  0.46356071  0.68752422  0.68712704    -0.73000
O839        O  0.46299687  0.76817086  0.68646936    -0.61600
O840        O  0.03663316  0.72468355  0.74158048    -0.70000
O841        O  0.99856103  0.70536560  0.81428702    -0.69600
O842        O  0.42561877  0.75118854  0.75966188    -0.60800
O843        O  0.42532362  0.66862432  0.75971020    -0.73300
O844        O  0.99775399  0.78632059  0.81396859    -0.72100
Cu845      Cu  0.50104046  0.74726026  0.71146574     1.04600
Cu846      Cu  0.46048990  0.72707699  0.78956595     1.04300
C847        C  0.02404491  0.81571892  0.78353594     0.94200
C848        C  0.43525297  0.65875831  0.71650874     0.93300
C849        C  0.43625533  0.77098971  0.71643903     0.85500
C850        C  0.02674007  0.70476483  0.78465482     0.91700
O851        O  0.16568587  0.72822677  0.73738916    -0.72000
O852        O  0.28443555  0.77591275  0.68260139    -0.73000
O853        O  0.20354537  0.69377242  0.68177635    -0.61600
O854        O  0.24722308  0.81102204  0.73815988    -0.70000
O855        O  0.26675788  0.79144892  0.81013427    -0.69600
O856        O  0.22137305  0.67370823  0.75464549    -0.60800
O857        O  0.30366608  0.75620219  0.75467772    -0.73300
O858        O  0.18613148  0.71054048  0.81007453    -0.72100
Cu859      Cu  0.22457594  0.75292486  0.70728256     1.04600
Cu860      Cu  0.24528752  0.73224509  0.78480112     1.04300
C861        C  0.15662660  0.70870193  0.78077931     0.94200
C862        C  0.31351139  0.77743735  0.71249360     0.93300
C863        C  0.20102867  0.66435871  0.71184103     0.85500
C864        C  0.26713748  0.82049311  0.78128626     0.91700
C865        C  0.88666932  0.44097549  0.17985264     0.81200
N866        N  0.86226507  0.43070178  0.13501862    -0.77100
C867        C  0.81727480  0.40850037  0.13577152     0.83600
N868        N  0.79674123  0.39671990  0.18261704    -0.77100
C869        C  0.81953308  0.40622917  0.22787239     0.83700
N870        N  0.86418806  0.42818638  0.22580432    -0.78800
C871        C  0.53131818  0.08515651  0.18051311     0.81200
N872        N  0.54298956  0.11011720  0.13602535    -0.77100
C873        C  0.56565210  0.15510537  0.13756632     0.83600
N874        N  0.57648118  0.17499525  0.18484070    -0.77100
C875        C  0.56551573  0.15161132  0.22971505     0.83700
N876        N  0.54312413  0.10703087  0.22687002    -0.78800
C877        C  0.53125846  0.44052623  0.18406327     0.81200
N878        N  0.54189414  0.42830242  0.23000110    -0.77100
C879        C  0.56444522  0.40595903  0.23159699     0.83600
N880        N  0.57662352  0.39575167  0.18591901    -0.77100
C881        C  0.56687041  0.40712289  0.13933605     0.83700
N882        N  0.54427207  0.42944232  0.13916987    -0.78800
C883        C  0.93767317  0.46625304  0.17926193     0.81200
N884        N  0.96105715  0.01105049  0.17834640    -0.77100
C885        C  0.50578834  0.03420305  0.17925189     0.83600
N886        N  0.52719632  0.01081034  0.18151061    -0.77100
C887        C  0.50573631  0.46607379  0.18261241     0.83700
N888        N  0.96091621  0.44466843  0.18157333    -0.78800
N889        N  0.88630376  0.08687097  0.41421476    -0.02500
C890        C  0.85850808  0.05338105  0.44588071     0.00100
C891        C  0.88162248  0.05464548  0.99440477    -0.22800
C892        C  0.92008247  0.09179375  0.99392365    -0.23000
C893        C  0.91968411  0.11368512  0.44672162     0.00000
H894        H  0.86791069  0.03453484  0.02823111     0.13700
H895        H  0.94062416  0.10499183  0.02752198     0.13800
N896        N  0.57767829  0.18139371  0.08949535    -0.02500
C897        C  0.60453486  0.17509091  0.05655747     0.00100
C898        C  0.58054259  0.15584898  0.50450986    -0.22800
C899        C  0.54198813  0.15445628  0.50591544    -0.23000
C900        C  0.54302234  0.17392522  0.05863673     0.00000
H901        H  0.59404138  0.14983015  0.47017370     0.13700
H902        H  0.52113588  0.14740113  0.47264305     0.13800
N903        N  0.88421884  0.30021662  0.41338099    -0.02500
C904        C  0.91783890  0.30712368  0.44559414     0.00100
C905        C  0.91989660  0.32947105  0.99494118    -0.22800
C906        C  0.88208139  0.32967018  0.99413586    -0.23000
C907        C  0.85816073  0.30947349  0.44390127     0.00000
H908        H  0.93987329  0.33626557  0.02899277     0.13700
H909        H  0.86827840  0.33659716  0.02749368     0.13800
O910        O  0.96473998  0.19115253  0.42860003    -0.72000
O911        O  0.53626327  0.31163188  0.49504564    -0.73000
O912        O  0.53631008  0.22831531  0.49641745    -0.61600
O913        O  0.96415168  0.27599055  0.42789995    -0.70000
O914        O  0.92653110  0.25546667  0.00505181    -0.69600
O915        O  0.49672858  0.20550863  0.07463024    -0.60800
O916        O  0.49743805  0.29089909  0.07503467    -0.73300
O917        O  0.92610484  0.17178712  0.00440841    -0.72100
Cu918      Cu  0.00182736  0.25251040  0.45986040     1.04600
Cu919      Cu  0.96021427  0.23019085  0.04192818     1.04300
C920        C  0.93552797  0.16133809  0.45649924     0.94200
C921        C  0.52809159  0.32085334  0.04872749     0.93300
C922        C  0.52712006  0.20565993  0.04820538     0.85500
C923        C  0.93442522  0.27607928  0.45544729     0.91700
O924        O  0.66047912  0.23070170  0.49536532    -0.72000
O925        O  0.78082577  0.28003859  0.42750830    -0.73000
O926        O  0.69614536  0.19535118  0.42626149    -0.61600
O927        O  0.74345542  0.31435500  0.49608076    -0.70000
O928        O  0.76766085  0.29242989  0.07202278    -0.69600
O929        O  0.71824245  0.17224553  0.00278771    -0.60800
O930        O  0.80200663  0.25531329  0.00284828    -0.73300
O931        O  0.68239386  0.20724641  0.07275236    -0.72100
Cu932      Cu  0.71950124  0.25592108  0.45916655     1.04600
Cu933      Cu  0.74332208  0.23107955  0.03974010     1.04300
C934        C  0.65208303  0.20680677  0.04586835     0.94200
C935        C  0.81051703  0.27924007  0.45438323     0.93300
C936        C  0.69597612  0.16515831  0.45300439     0.85500
C937        C  0.76703310  0.32229305  0.04526276     0.91700
N938        N  0.57938560  0.39502214  0.09020565    -0.02500
C939        C  0.54463624  0.36833987  0.05936865     0.00100
C940        C  0.54347087  0.39266122  0.50265208    -0.22800
C941        C  0.58033127  0.43139133  0.50397228    -0.23000
C942        C  0.60505113  0.42946657  0.05829440     0.00000
H943        H  0.52384315  0.37901087  0.46847344     0.13700
H944        H  0.59387335  0.45225221  0.47068872     0.13800
N945        N  0.67280273  0.09082985  0.41197299    -0.02500
C946        C  0.66446866  0.11777431  0.44211866     0.00100
C947        C  0.64359198  0.09251584  0.99214083    -0.22800
C948        C  0.64324263  0.05445471  0.99201503    -0.23000
C949        C  0.66608223  0.05780898  0.44502910     0.00000
H950        H  0.63669091  0.10598912  0.02586175     0.13700
H951        H  0.63605814  0.03397395  0.02567181     0.13800
N952        N  0.79170781  0.39699129  0.08723098    -0.02500
C953        C  0.79828058  0.37001585  0.05490106     0.00100
C954        C  0.81774732  0.39420338  0.50524816    -0.22800
C955        C  0.81771851  0.43207266  0.50510110    -0.23000
C956        C  0.79931995  0.43155363  0.05601650     0.00000
H957        H  0.82457888  0.38061043  0.47159358     0.13700
H958        H  0.82451285  0.45233387  0.47132600     0.13800
O959        O  0.74379451  0.43840380  0.49550679    -0.72000
O960        O  0.69645662  0.01086121  0.42724219    -0.73000
O961        O  0.78103948  0.00962639  0.42727886    -0.61600
O962        O  0.66072958  0.43881202  0.49515285    -0.70000
O963        O  0.68259588  0.47725953  0.07304466    -0.69600
O964        O  0.80153219  0.04956523  0.00293634    -0.60800
O965        O  0.71749037  0.04847313  0.00310385    -0.73300
O966        O  0.76819175  0.47838885  0.07216237    -0.72100
Cu967      Cu  0.71964105  0.47297251  0.45912841     1.04600
Cu968      Cu  0.74318663  0.51493587  0.03993368     1.04300
C969        C  0.76792995  0.44800021  0.04559129     0.94200
C970        C  0.69678329  0.04081682  0.45473251     0.93300
C971        C  0.81108653  0.03875633  0.45502919     0.85500
C972        C  0.65262472  0.44685656  0.04653923     0.91700
C973        C  0.57834596  0.03778504  0.31953489     0.81200
N974        N  0.60264649  0.05301715  0.36417203    -0.77100
C975        C  0.64754751  0.07594127  0.36347541     0.83600
N976        N  0.66824481  0.08394313  0.31685651    -0.77100
C977        C  0.64562996  0.06959731  0.27166606     0.83700
N978        N  0.60090698  0.04659758  0.27362039    -0.78800
C979        C  0.93355298  0.03728849  0.32347399     0.81200
N980        N  0.92180039  0.05056029  0.36805656    -0.77100
C981        C  0.89939751  0.07328776  0.36639671     0.83600
N982        N  0.88893736  0.08264304  0.31911652    -0.77100
C983        C  0.89989723  0.07015356  0.27433529     0.83700
N984        N  0.92205272  0.04769921  0.27716237    -0.78800
C985        C  0.95939081  0.44398574  0.31971262     0.81200
N986        N  0.50411640  0.46729308  0.31879725    -0.77100
C987        C  0.52738971  0.01207243  0.32075093     0.83600
N988        N  0.50394857  0.03340757  0.32326732    -0.77100
C989        C  0.95913930  0.01181514  0.32420158     0.83700
N990        N  0.93776641  0.46716723  0.32230772    -0.78800
C991        C  0.93404885  0.39300882  0.31883854     0.81200
N992        N  0.92439228  0.36982037  0.27322358    -0.77100
C993        C  0.90190994  0.32500329  0.27221279     0.83600
N994        N  0.88906042  0.30306618  0.31803134    -0.77100
C995        C  0.89791729  0.32449237  0.36422954     0.83700
N996        N  0.92025952  0.36931496  0.36395004    -0.78800
N997        N  0.57599490  0.39478596  0.28195125    -0.02500
C998        C  0.61227596  0.41832733  0.31060627     0.00100
C999        C  0.60816907  0.40208789  0.35991399    -0.22800
C1000       C  0.57025890  0.36436396  0.36079935    -0.23000
C1001       C  0.55290196  0.35912654  0.31194898     0.00000
H1002       H  0.63322988  0.41232927  0.38881038     0.13700
H1003       H  0.56068524  0.33996089  0.39043703     0.13800
N1004       N  0.88960347  0.08119942  0.22352203    -0.05300
C1005       C  0.85404206  0.05800620  0.19363687     0.00100
C1006       C  0.85924105  0.07555975  0.14491922    -0.22800
C1007       C  0.89726075  0.11338359  0.14576232    -0.23000
C1008       C  0.91364930  0.11728504  0.19495911     0.00000
H1009       H  0.83486465  0.06589017  0.11517142     0.13700
H1010       H  0.90786731  0.13842695  0.11677277     0.13800
N1011       N  0.66796262  0.07977421  0.22132445    -0.02500
C1012       C  0.68150476  0.11578870  0.19190827     0.00100
C1013       C  0.69392176  0.11072785  0.14317321    -0.22800
C1014       C  0.69295059  0.07235186  0.14361098    -0.23000
C1015       C  0.68010179  0.05569827  0.19265562     0.00000
H1016       H  0.70936707  0.13536112  0.11389229     0.13700
H1017       H  0.70772905  0.06194326  0.11479142     0.13800
N1018       N  0.79750171  0.39454097  0.27840457    -0.02500
C1019       C  0.78522835  0.35837687  0.30718287     0.00100
C1020       C  0.77286966  0.36258878  0.35633154    -0.22800
C1021       C  0.77298088  0.40056247  0.35710417    -0.23000
C1022       C  0.78528679  0.41793328  0.30832532     0.00000
H1023       H  0.75810233  0.33759813  0.38533568     0.13700
H1024       H  0.75833668  0.41040044  0.38676849     0.13800
O1025       O  0.80132361  0.04313256  0.25691133    -0.72000
O1026       O  0.68512408  0.47179888  0.31729676    -0.73000
O1027       O  0.76650192  0.47218915  0.31645625    -0.61600
O1028       O  0.71862561  0.04223490  0.25711552    -0.70000
O1029       O  0.69963770  0.00218439  0.18603599    -0.69600
O1030       O  0.74672805  0.43220312  0.24530363    -0.60800
O1031       O  0.66424010  0.43179290  0.24616914    -0.73300
O1032       O  0.78132925  0.00315325  0.18575016    -0.72100
Cu1033     Cu  0.74364164  0.50890820  0.28944327     1.04600
Cu1034     Cu  0.72224788  0.46584131  0.21338139     1.04300
C1035       C  0.81057162  0.03233535  0.21388697     0.94200
C1036       C  0.65548472  0.44300214  0.28932170     0.93300
C1037       C  0.76699125  0.44325621  0.28815488     0.85500
C1038       C  0.69858377  0.03091285  0.21404123     0.91700
N1039       N  0.57689338  0.17292908  0.28063262    -0.02500
C1040       C  0.61348380  0.18610887  0.30869738     0.00100
C1041       C  0.60905079  0.19712163  0.35849300    -0.22800
C1042       C  0.57021545  0.19523241  0.36040755    -0.23000
C1043       C  0.55282272  0.18358984  0.31153405     0.00000
H1044       H  0.63408810  0.21200090  0.38734573     0.13700
H1045       H  0.55990877  0.20882912  0.39085550     0.13800
N1046       N  0.89157781  0.30174543  0.22235706    -0.02500
C1047       C  0.91542813  0.28862688  0.19475973     0.00100
C1048       C  0.89850185  0.27416216  0.14617695    -0.22800
C1049       C  0.86026493  0.27339273  0.14488449    -0.23000
C1050       C  0.85550323  0.28755901  0.19264001     0.00000
H1051       H  0.90875551  0.25844294  0.11846434     0.13700
H1052       H  0.83547184  0.25706141  0.11594755     0.13800
O1053       O  0.54037045  0.30623834  0.24945600    -0.72000
O1054       O  0.96928624  0.18948441  0.18912437    -0.73000
O1055       O  0.97003982  0.27064984  0.18948969    -0.61600
O1056       O  0.53983225  0.22366755  0.24947916    -0.70000
O1057       O  0.49954686  0.20377054  0.32038634    -0.69600
O1058       O  0.92962389  0.25157827  0.26030673    -0.60800
O1059       O  0.92878801  0.16903200  0.25988452    -0.73300
O1060       O  0.50023672  0.28577175  0.32047838    -0.72100
Cu1061     Cu  0.00644732  0.24823200  0.21706909     1.04600
Cu1062     Cu  0.96301630  0.22674362  0.29284915     1.04300
C1063       C  0.52878209  0.31534043  0.29205300     0.94200
C1064       C  0.93966376  0.16015569  0.21661307     0.93300
C1065       C  0.94091934  0.27136070  0.21709245     0.85500
C1066       C  0.52829483  0.20298055  0.29203346     0.91700
O1067       O  0.66528164  0.22403093  0.24378267    -0.72000
O1068       O  0.78275902  0.26933638  0.18428019    -0.73000
O1069       O  0.70121283  0.18878340  0.18416476    -0.61600
O1070       O  0.74773604  0.30608912  0.24301626    -0.70000
O1071       O  0.76711157  0.28567027  0.31437274    -0.69600
O1072       O  0.72034062  0.16812793  0.25554736    -0.60800
O1073       O  0.80276802  0.24974501  0.25582955    -0.73300
O1074       O  0.68620895  0.20496579  0.31497224    -0.72100
Cu1075     Cu  0.72350446  0.24783390  0.21128594     1.04600
Cu1076     Cu  0.74487315  0.22636488  0.28760974     1.04300
C1077       C  0.65658476  0.20433573  0.28710641     0.94200
C1078       C  0.81203912  0.26973982  0.21280373     0.93300
C1079       C  0.70028464  0.15922448  0.21248618     0.85500
C1080       C  0.76759545  0.31512919  0.28616757     0.91700
C1081       C  0.88303640  0.44504588  0.67347506     0.81200
N1082       N  0.85862686  0.43357917  0.62870318    -0.77100
C1083       C  0.81370944  0.41126412  0.62942152     0.83600
N1084       N  0.79307179  0.40040845  0.67632434    -0.77100
C1085       C  0.81583220  0.41102782  0.72173393     0.83700
N1086       N  0.86056663  0.43309021  0.71957837    -0.78800
C1087       C  0.52932189  0.08816184  0.67263257     0.81200
N1088       N  0.54093825  0.11294871  0.62807650    -0.77100
C1089       C  0.56437383  0.15788206  0.62932124     0.83600
N1090       N  0.57619856  0.17802540  0.67645131    -0.77100
C1091       C  0.56540864  0.15485070  0.72152967     0.83700
N1092       N  0.54206631  0.11021876  0.71889730    -0.78800
C1093       C  0.52616770  0.44208219  0.67244508     0.81200
N1094       N  0.53575139  0.42905315  0.71837155    -0.77100
C1095       C  0.55768284  0.40619861  0.72036968     0.83600
N1096       N  0.57052099  0.39632605  0.67490116    -0.77100
C1097       C  0.56185221  0.40847194  0.62810146     0.83700
N1098       N  0.53975460  0.43136721  0.62759669    -0.78800
C1099       C  0.93403817  0.46987109  0.67222004     0.81200
N1100       N  0.95807261  0.01459478  0.67191098    -0.77100
C1101       C  0.50292670  0.03718320  0.67130517     0.83600
N1102       N  0.52371514  0.01315957  0.67132216    -0.77100
C1103       C  0.50140643  0.46835315  0.67162276     0.83700
N1104       N  0.95671255  0.44769488  0.67227028    -0.78800
N1105       N  0.88639784  0.08816203  0.91866770    -0.02500
C1106       C  0.85945885  0.05442819  0.95063483     0.00100
C1107       C  0.87978393  0.05392960  0.49066715    -0.22800
C1108       C  0.91786668  0.09153014  0.49123503    -0.23000
C1109       C  0.92095199  0.11438994  0.95020584     0.00000
H1110       H  0.86532249  0.03404169  0.52449169     0.13700
H1111       H  0.93736272  0.10513674  0.52553234     0.13800
N1112       N  0.57617345  0.18379129  0.58102946    -0.02500
C1113       C  0.60301679  0.17746933  0.54824873     0.00100
C1114       C  0.58185302  0.15360127  0.01287587    -0.22800
C1115       C  0.54341270  0.15252227  0.01439362    -0.23000
C1116       C  0.54159016  0.17601671  0.55001745     0.00000
H1117       H  0.59519864  0.14752387  0.97845450     0.13700
H1118       H  0.52262152  0.14571624  0.98111793     0.13800
N1119       N  0.88714797  0.30036997  0.91895906    -0.02500
C1120       C  0.92105268  0.30781255  0.95133918     0.00100
C1121       C  0.91747752  0.32934808  0.48900791    -0.22800
C1122       C  0.88051920  0.33120861  0.48771658    -0.23000
C1123       C  0.86012987  0.30798578  0.95012487     0.00000
H1124       H  0.93748774  0.33592893  0.52298348     0.13700
H1125       H  0.86724752  0.33914378  0.52077785     0.13800
O1126       O  0.96808462  0.19202988  0.93549319    -0.72000
O1127       O  0.53937182  0.31082694  0.00607298    -0.73000
O1128       O  0.53871276  0.22730098  0.00574734    -0.61600
O1129       O  0.96841449  0.27720589  0.93609392    -0.70000
O1130       O  0.92392099  0.25512083  0.49832400    -0.69600
O1131       O  0.49636968  0.20830094  0.56711871    -0.60800
O1132       O  0.49612238  0.29319863  0.56549270    -0.73300
O1133       O  0.92483894  0.17201289  0.49925030    -0.72100
Cu1134     Cu  0.00513599  0.25259442  0.96879687     1.04600
Cu1135     Cu  0.95883536  0.23147260  0.53468778     1.04300
C1136       C  0.93748134  0.16190367  0.96162480     0.94200
C1137       C  0.52582475  0.32266127  0.53761647     0.93300
C1138       C  0.52574003  0.20761112  0.53955526     0.85500
C1139       C  0.93784130  0.27683994  0.96238777     0.91700
O1140       O  0.66204920  0.22794460  0.00299869    -0.72000
O1141       O  0.78243936  0.27766538  0.93386704    -0.73000
O1142       O  0.69755772  0.19266730  0.93305238    -0.61600
O1143       O  0.74518751  0.31182648  0.00299475    -0.70000
O1144       O  0.76509256  0.29450442  0.56550722    -0.69600
O1145       O  0.71695606  0.17502642  0.49594436    -0.60800
O1146       O  0.80004821  0.25786461  0.49695587    -0.73300
O1147       O  0.68044264  0.20957271  0.56514558    -0.72100
Cu1148     Cu  0.72106805  0.25328766  0.96616631     1.04600
Cu1149     Cu  0.74136196  0.23354343  0.53300143     1.04300
C1150       C  0.65037011  0.20927229  0.53799381     0.94200
C1151       C  0.81237306  0.27692963  0.96037735     0.93300
C1152       C  0.69731082  0.16240776  0.95977565     0.85500
C1153       C  0.76479498  0.32448881  0.53872475     0.91700
N1154       N  0.57591820  0.39743041  0.57925053    -0.02500
C1155       C  0.54260691  0.37048299  0.54671391     0.00100
C1156       C  0.54406209  0.39065565  0.01612491    -0.22800
C1157       C  0.58167556  0.42871373  0.01546338    -0.23000
C1158       C  0.60236250  0.43233299  0.54828999     0.00000
H1159       H  0.52300246  0.37711762  0.98303036     0.13700
H1160       H  0.59426497  0.44924530  0.98176430     0.13800
N1161       N  0.67308772  0.08818927  0.91675463    -0.02500
C1162       C  0.66584567  0.11498958  0.94869898     0.00100
C1163       C  0.64264935  0.09604726  0.48620427    -0.22800
C1164       C  0.64439530  0.05907291  0.48849062    -0.23000
C1165       C  0.66539528  0.05390761  0.94857147     0.00000
H1166       H  0.63524721  0.10996491  0.51907661     0.13700
H1167       H  0.63805338  0.03966832  0.52292388     0.13800
N1168       N  0.78844854  0.39866758  0.58068919    -0.02500
C1169       C  0.79599442  0.37197160  0.54908513     0.00100
C1170       C  0.81943829  0.39222555  0.01082439    -0.22800
C1171       C  0.82042370  0.43062739  0.01172384    -0.23000
C1172       C  0.79595553  0.43273263  0.54886232     0.00000
H1173       H  0.82555406  0.37857741  0.97670927     0.13700
H1174       H  0.82720079  0.45115144  0.97818902     0.13800
O1175       O  0.74630286  0.43666859  0.00310478    -0.72000
O1176       O  0.69693550  0.00744061  0.93341663    -0.73000
O1177       O  0.78212932  0.00782824  0.93380980    -0.61600
O1178       O  0.66263938  0.43626536  0.00331852    -0.70000
O1179       O  0.67992567  0.47939577  0.56521714    -0.69600
O1180       O  0.80072747  0.05002337  0.49755154    -0.60800
O1181       O  0.71799436  0.05138087  0.49741715    -0.73300
O1182       O  0.76457334  0.47877725  0.56583297    -0.72100
Cu1183     Cu  0.72126053  0.47059050  0.96632489     1.04600
Cu1184     Cu  0.74141193  0.51637138  0.53361473     1.04300
C1185       C  0.76474879  0.44905936  0.53845946     0.94200
C1186       C  0.69665546  0.03752353  0.96001263     0.93300
C1187       C  0.81190923  0.03825095  0.96052143     0.85500
C1188       C  0.65015826  0.44939268  0.53797728     0.91700
C1189       C  0.57743996  0.04072024  0.82497831     0.81200
N1190       N  0.60230738  0.05294010  0.86947113    -0.77100
C1191       C  0.64726572  0.07569978  0.86819054     0.83600
N1192       N  0.66739777  0.08632222  0.82085415    -0.77100
C1193       C  0.64410856  0.07492204  0.77571411     0.83700
N1194       N  0.59943874  0.05213097  0.77859426    -0.78800
C1195       C  0.93158188  0.03855527  0.82578064     0.81200
N1196       N  0.92089533  0.05232427  0.87054128    -0.77100
C1197       C  0.89794659  0.07438641  0.86987957     0.83600
N1198       N  0.88563686  0.08272587  0.82299030    -0.77100
C1199       C  0.89546961  0.06972017  0.77760759     0.83700
N1200       N  0.91842876  0.04789842  0.77976407    -0.78800
C1201       C  0.95899135  0.44600824  0.82684796     0.81200
N1202       N  0.50378977  0.46988740  0.82655381    -0.77100
C1203       C  0.52642144  0.01465749  0.82658700     0.83600
N1204       N  0.50252185  0.03560344  0.82651841    -0.77100
C1205       C  0.95775967  0.01363561  0.82679683     0.83700
N1206       N  0.93689344  0.46878727  0.82672363    -0.78800
C1207       C  0.93421063  0.39499151  0.82587678     0.81200
N1208       N  0.92369373  0.37254328  0.77980257    -0.77100
C1209       C  0.90217390  0.32785446  0.77755733     0.83600
N1210       N  0.89073505  0.30502675  0.82302791    -0.77100
C1211       C  0.90020420  0.32563607  0.87004911     0.83700
N1212       N  0.92194206  0.37057192  0.87070157    -0.78800
N1213       N  0.56887136  0.39532154  0.77111945    -0.02500
C1214       C  0.60308097  0.42101321  0.80162426     0.00100
C1215       C  0.59722389  0.40634032  0.85189402    -0.22800
C1216       C  0.56077802  0.36743150  0.85189587    -0.23000
C1217       C  0.54591156  0.36009951  0.80167310     0.00000
H1218       H  0.62083523  0.41842210  0.88269025     0.13700
H1219       H  0.55086983  0.34401349  0.88281620     0.13800
N1220       N  0.88442358  0.08067824  0.72680973    -0.05300
C1221       C  0.84850225  0.05829078  0.69694860     0.00100
C1222       C  0.85444449  0.07469032  0.64751769    -0.22800
C1223       C  0.89339316  0.11110427  0.64732996    -0.23000
C1224       C  0.90955622  0.11550349  0.69670294     0.00000
H1225       H  0.83026957  0.06536926  0.61758175     0.13700
H1226       H  0.90489960  0.13545960  0.61736285     0.13800
N1227       N  0.66541934  0.08465892  0.72446503    -0.02500
C1228       C  0.67901110  0.12006437  0.69373688     0.00100
C1229       C  0.68665350  0.11233183  0.64373533    -0.22800
C1230       C  0.68259195  0.07265603  0.64398577    -0.23000
C1231       C  0.67304963  0.05809592  0.69427302     0.00000
H1232       H  0.70086543  0.13564395  0.61280991     0.13700
H1233       H  0.69366246  0.05983772  0.61347231     0.13800
N1234       N  0.79373018  0.39869696  0.77241585    -0.02500
C1235       C  0.78458726  0.36362289  0.80181758     0.00100
C1236       C  0.77215813  0.36702970  0.85124894    -0.22800
C1237       C  0.76820300  0.40270361  0.85154940    -0.23000
C1238       C  0.77876171  0.41973847  0.80246050     0.00000
H1239       H  0.75948311  0.34222823  0.88067210     0.13700
H1240       H  0.75242743  0.41100248  0.88143039     0.13800
O1241       O  0.79469756  0.04405248  0.75888038    -0.72000
O1242       O  0.67612684  0.47213304  0.81234259    -0.73000
O1243       O  0.75664814  0.47090146  0.81335544    -0.61600
O1244       O  0.71244420  0.04430627  0.75692480    -0.70000
O1245       O  0.69390694  0.00587817  0.68451498    -0.69600
O1246       O  0.73901640  0.43333234  0.74027812    -0.60800
O1247       O  0.65673384  0.43363356  0.73997627    -0.73300
O1248       O  0.77549356  0.00648832  0.68582157    -0.72100
Cu1249     Cu  0.73561972  0.50912332  0.78796290     1.04600
Cu1250     Cu  0.71550097  0.46826428  0.71009304     1.04300
C1251       C  0.80453554  0.03387122  0.71585229     0.94200
C1252       C  0.64705023  0.44454719  0.78270764     0.93300
C1253       C  0.75868546  0.44361469  0.78351536     0.85500
C1254       C  0.69246034  0.03372271  0.71382211     0.91700
N1255       N  0.57700142  0.17641428  0.77246308    -0.02500
C1256       C  0.61337477  0.18952243  0.80113478     0.00100
C1257       C  0.60845245  0.19993260  0.85102651    -0.22800
C1258       C  0.56970578  0.19801063  0.85259454    -0.23000
C1259       C  0.55267821  0.18659811  0.80355551     0.00000
H1260       H  0.63321322  0.21446672  0.88036016     0.13700
H1261       H  0.55899757  0.21111752  0.88318230     0.13800
N1262       N  0.89142802  0.30602476  0.72659747    -0.02500
C1263       C  0.91414518  0.29265374  0.69723029     0.00100
C1264       C  0.90031069  0.28540722  0.64659656    -0.22800
C1265       C  0.86479799  0.28963087  0.64490530    -0.23000
C1266       C  0.85812573  0.29862919  0.69478296     0.00000
H1267       H  0.91042044  0.27150099  0.61633165     0.13700
H1268       H  0.84188068  0.27874002  0.61335932     0.13800
O1269       O  0.53531229  0.30638524  0.74079714    -0.72000
O1270       O  0.96396163  0.18764572  0.68714484    -0.73000
O1271       O  0.96330395  0.26824091  0.68646684    -0.61600
O1272       O  0.53694292  0.22475858  0.74168987    -0.70000
O1273       O  0.49881568  0.20539359  0.81435423    -0.69600
O1274       O  0.92589931  0.25123982  0.75964034    -0.60800
O1275       O  0.92566472  0.16872989  0.75968318    -0.73300
O1276       O  0.49803967  0.28637070  0.81405888    -0.72100
Cu1277     Cu  0.00137818  0.24738910  0.71152173     1.04600
Cu1278     Cu  0.96077875  0.22714924  0.78958513     1.04300
C1279       C  0.52429480  0.31578560  0.78362003     0.94200
C1280       C  0.93561571  0.15887676  0.71649068     0.93300
C1281       C  0.93652707  0.27102591  0.71640708     0.85500
C1282       C  0.52700147  0.20479330  0.78473346     0.91700
O1283       O  0.66588332  0.22822989  0.73736014    -0.72000
O1284       O  0.78462576  0.27589800  0.68250705    -0.73000
O1285       O  0.70370583  0.19378094  0.68169685    -0.61600
O1286       O  0.74741616  0.31100844  0.73811061    -0.70000
O1287       O  0.76700091  0.29144906  0.81005650    -0.69600
O1288       O  0.72151120  0.17368307  0.75455650    -0.60800
O1289       O  0.80384718  0.25614584  0.75455833    -0.73300
O1290       O  0.68635978  0.21056141  0.81003476    -0.72100
Cu1291     Cu  0.72476686  0.25292513  0.70721905     1.04600
Cu1292     Cu  0.74549148  0.23223232  0.78471711     1.04300
C1293       C  0.65684173  0.20870883  0.78075365     0.94200
C1294       C  0.81369625  0.27738425  0.71237820     0.93300
C1295       C  0.70113978  0.16435142  0.71176974     0.85500
C1296       C  0.76732807  0.32048321  0.78123689     0.91700
C1297       C  0.88670283  0.94101512  0.17984104     0.81200
N1298       N  0.86229314  0.93076343  0.13501147    -0.77100
C1299       C  0.81730180  0.90855404  0.13577120     0.83600
N1300       N  0.79677383  0.89674565  0.18261729    -0.77100
C1301       C  0.81956899  0.90623067  0.22786695     0.83700
N1302       N  0.86422447  0.92819222  0.22579339    -0.78800
C1303       C  0.53137170  0.58517221  0.18056879     0.81200
N1304       N  0.54301167  0.61012062  0.13607142    -0.77100
C1305       C  0.56566952  0.65510947  0.13759271     0.83600
N1306       N  0.57652481  0.67501419  0.18485776    -0.77100
C1307       C  0.56559053  0.65164549  0.22974305     0.83700
N1308       N  0.54320335  0.60706229  0.22691700    -0.78800
C1309       C  0.53121949  0.94052740  0.18401165     0.81200
N1310       N  0.54186734  0.92833139  0.22995979    -0.77100
C1311       C  0.56442778  0.90599875  0.23157866     0.83600
N1312       N  0.57660807  0.89577709  0.18591163    -0.77100
C1313       C  0.56684851  0.90712616  0.13931730     0.83700
N1314       N  0.54423674  0.92943251  0.13912903    -0.78800
C1315       C  0.93770951  0.96630149  0.17924628     0.81200
N1316       N  0.96102707  0.51100162  0.17837059    -0.77100
C1317       C  0.50583946  0.53421484  0.17932367     0.83600
N1318       N  0.52724518  0.51081858  0.18157728    -0.77100
C1319       C  0.50569050  0.96606681  0.18254236     0.83700
N1320       N  0.96096100  0.94472507  0.18156855    -0.78800
N1321       N  0.88615480  0.58686278  0.41435559    -0.02500
C1322       C  0.85832299  0.55334624  0.44597363     0.00100
C1323       C  0.88166266  0.55463322  0.99441544    -0.22800
C1324       C  0.92012333  0.59178126  0.99389776    -0.23000
C1325       C  0.91949175  0.61366317  0.44692637     0.00000
H1326       H  0.86796406  0.53454258  0.02826002     0.13700
H1327       H  0.94067252  0.60499818  0.02748688     0.13800
N1328       N  0.57766517  0.68138371  0.08951144    -0.02500
C1329       C  0.60452297  0.67509543  0.05656050     0.00100
C1330       C  0.58046726  0.65581026  0.50456528    -0.22800
C1331       C  0.54192218  0.65443950  0.50595930    -0.23000
C1332       C  0.54299818  0.67390199  0.05866544     0.00000
H1333       H  0.59396516  0.64979084  0.47023036     0.13700
H1334       H  0.52107761  0.64739765  0.47268272     0.13800
N1335       N  0.88413047  0.80016166  0.41340898    -0.02500
C1336       C  0.91771806  0.80708849  0.44568810     0.00100
C1337       C  0.91994167  0.82947745  0.99502813    -0.22800
C1338       C  0.88212043  0.82966615  0.99428605    -0.23000
C1339       C  0.85803925  0.80942394  0.44385962     0.00000
H1340       H  0.93993013  0.83624671  0.02906532     0.13700
H1341       H  0.86833024  0.83656866  0.02767516     0.13800
O1342       O  0.96457734  0.69111271  0.42867108    -0.72000
O1343       O  0.53631750  0.81165853  0.49501738    -0.73000
O1344       O  0.53627283  0.72830121  0.49644246    -0.61600
O1345       O  0.96401880  0.77595444  0.42793344    -0.70000
O1346       O  0.92648157  0.75542156  0.00504286    -0.69600
O1347       O  0.49670868  0.70548892  0.07466469    -0.60800
O1348       O  0.49740463  0.79087395  0.07506115    -0.73300
O1349       O  0.92605369  0.67173372  0.00436938    -0.72100
Cu1350     Cu  0.00173123  0.75250155  0.45983280     1.04600
Cu1351     Cu  0.96014714  0.73012886  0.04192319     1.04300
C1352       C  0.93540639  0.66133968  0.45665344     0.94200
C1353       C  0.52806026  0.82082578  0.04875284     0.93300
C1354       C  0.52709409  0.70563530  0.04823253     0.85500
C1355       C  0.93435968  0.77609624  0.45556143     0.91700
O1356       O  0.66039722  0.73067832  0.49544225    -0.72000
O1357       O  0.78070333  0.77997031  0.42751180    -0.73000
O1358       O  0.69600581  0.69530852  0.42628995    -0.61600
O1359       O  0.74340740  0.81431070  0.49615000    -0.70000
O1360       O  0.76763933  0.79245814  0.07209126    -0.69600
O1361       O  0.71825439  0.67227570  0.00285901    -0.60800
O1362       O  0.80201017  0.75535146  0.00295991    -0.73300
O1363       O  0.68237669  0.70726589  0.07279678    -0.72100
Cu1364     Cu  0.71940247  0.75587653  0.45921294     1.04600
Cu1365     Cu  0.74331479  0.73110806  0.03981527     1.04300
C1366       C  0.65207191  0.70681269  0.04588699     0.94200
C1367       C  0.81040393  0.77915865  0.45434980     0.93300
C1368       C  0.69583641  0.66510200  0.45300329     0.85500
C1369       C  0.76701923  0.82231742  0.04531411     0.91700
N1370       N  0.57935957  0.89500430  0.09019834    -0.02500
C1371       C  0.54460194  0.86831302  0.05937797     0.00100
C1372       C  0.54369602  0.89276507  0.50258361    -0.22800
C1373       C  0.58055915  0.93149024  0.50392319    -0.23000
C1374       C  0.60502458  0.92943185  0.05826262     0.00000
H1375       H  0.52407156  0.87912406  0.46839805     0.13700
H1376       H  0.59411630  0.95235609  0.47064529     0.13800
N1377       N  0.67263349  0.59077437  0.41198087    -0.02500
C1378       C  0.66430666  0.61772912  0.44211118     0.00100
C1379       C  0.64363330  0.59253794  0.99217589    -0.22800
C1380       C  0.64329812  0.55448414  0.99205163    -0.23000
C1381       C  0.66587964  0.55774433  0.44503521     0.00000
H1382       H  0.63672020  0.60600395  0.02589402     0.13700
H1383       H  0.63611297  0.53400101  0.02570662     0.13800
N1384       N  0.79172518  0.89703648  0.08723709    -0.02500
C1385       C  0.79828128  0.87004063  0.05492584     0.00100
C1386       C  0.81780726  0.89409061  0.50527946    -0.22800
C1387       C  0.81783671  0.93198968  0.50509889    -0.23000
C1388       C  0.79933369  0.93158523  0.05599856     0.00000
H1389       H  0.82460864  0.88046190  0.47163824     0.13700
H1390       H  0.82465810  0.95224144  0.47130986     0.13800
O1391       O  0.74398775  0.93844893  0.49545681    -0.72000
O1392       O  0.69625919  0.51080001  0.42727107    -0.73000
O1393       O  0.78085487  0.50958208  0.42733354    -0.61600
O1394       O  0.66093349  0.93887339  0.49512773    -0.70000
O1395       O  0.68256796  0.97723735  0.07301878    -0.69600
O1396       O  0.80156744  0.54954272  0.00296803    -0.60800
O1397       O  0.71754715  0.54849633  0.00313187    -0.73300
O1398       O  0.76818600  0.97840772  0.07212968    -0.72100
Cu1399     Cu  0.71983661  0.97302615  0.45908921     1.04600
Cu1400     Cu  0.74315468  0.01493436  0.03990373     1.04300
C1401       C  0.76793965  0.94802646  0.04555927     0.94200
C1402       C  0.69656929  0.54074668  0.45476300     0.93300
C1403       C  0.81089248  0.53872555  0.45508250     0.85500
C1404       C  0.65260225  0.94683013  0.04651238     0.91700
C1405       C  0.57819909  0.53774680  0.31952799     0.81200
N1406       N  0.60249220  0.55297838  0.36416656    -0.77100
C1407       C  0.64739128  0.57589802  0.36347903     0.83600
N1408       N  0.66809806  0.58390014  0.31686808    -0.77100
C1409       C  0.64549189  0.56955608  0.27167357     0.83700
N1410       N  0.60076710  0.54655546  0.27361746    -0.78800
C1411       C  0.93350602  0.53738577  0.32358198     0.81200
N1412       N  0.92170245  0.55060087  0.36817673    -0.77100
C1413       C  0.89930207  0.57333446  0.36652980     0.83600
N1414       N  0.88888946  0.58274357  0.31925124    -0.77100
C1415       C  0.89990096  0.57031221  0.27446196     0.83700
N1416       N  0.92205925  0.54786092  0.27727729    -0.78800
C1417       C  0.95944367  0.94390220  0.31971623     0.81200
N1418       N  0.50426061  0.96732951  0.31882852    -0.77100
C1419       C  0.52724442  0.51203446  0.32074997     0.83600
N1420       N  0.50380470  0.53336795  0.32333568    -0.77100
C1421       C  0.95909063  0.51190374  0.32427671     0.83700
N1422       N  0.93781734  0.96708108  0.32225286    -0.78800
C1423       C  0.93409786  0.89293258  0.31885501     0.81200
N1424       N  0.92447278  0.86974214  0.27324792    -0.77100
C1425       C  0.90196019  0.82492816  0.27224253     0.83600
N1426       N  0.88905164  0.80299429  0.31806034    -0.77100
C1427       C  0.89788356  0.82442644  0.36425345     0.83700
N1428       N  0.92025175  0.86924741  0.36396609    -0.78800
N1429       N  0.57598828  0.89485897  0.28194664    -0.02500
C1430       C  0.61224110  0.91846513  0.31062244     0.00100
C1431       C  0.60812269  0.90226560  0.35995482    -0.22800
C1432       C  0.57025625  0.86449619  0.36082929    -0.23000
C1433       C  0.55292823  0.85920083  0.31195492     0.00000
H1434       H  0.63317049  0.91255466  0.38887637     0.13700
H1435       H  0.56070309  0.84011495  0.39049082     0.13800
N1436       N  0.88964733  0.58140548  0.22365336    -0.05300
C1437       C  0.85407010  0.55829232  0.19376171     0.00100
C1438       C  0.85930341  0.57587816  0.14505980    -0.22800
C1439       C  0.89738835  0.61363447  0.14590499    -0.23000
C1440       C  0.91377396  0.61747230  0.19509356     0.00000
H1441       H  0.83493621  0.56626490  0.11530896     0.13700
H1442       H  0.90805754  0.63869118  0.11692506     0.13800
N1443       N  0.66783635  0.57972438  0.22134007    -0.02500
C1444       C  0.68141505  0.61574345  0.19192254     0.00100
C1445       C  0.69381130  0.61066011  0.14318602    -0.22800
C1446       C  0.69280199  0.57226775  0.14362971    -0.23000
C1447       C  0.67995702  0.55562988  0.19268254     0.00000
H1448       H  0.70928183  0.63528969  0.11390457     0.13700
H1449       H  0.70757521  0.56184759  0.11481681     0.13800
N1450       N  0.79753893  0.89450317  0.27839892    -0.02500
C1451       C  0.78536797  0.85836096  0.30718132     0.00100
C1452       C  0.77297910  0.86253366  0.35633104    -0.22800
C1453       C  0.77295099  0.90043754  0.35709189    -0.23000
C1454       C  0.78522030  0.91781549  0.30831434     0.00000
H1455       H  0.75826010  0.83753742  0.38533468     0.13700
H1456       H  0.75825396  0.91021768  0.38675709     0.13800
O1457       O  0.80130047  0.54330583  0.25700320    -0.72000
O1458       O  0.68513544  0.97184575  0.31729318    -0.73000
O1459       O  0.76644197  0.97207277  0.31644813    -0.61600
O1460       O  0.71850993  0.54222604  0.25717490    -0.70000
O1461       O  0.69961634  0.50221267  0.18606785    -0.69600
O1462       O  0.74659473  0.93204273  0.24533050    -0.60800
O1463       O  0.66417812  0.93179873  0.24620140    -0.73300
O1464       O  0.78139451  0.50337160  0.18580432    -0.72100
Cu1465     Cu  0.74366643  0.00884926  0.28940119     1.04600
Cu1466     Cu  0.72218170  0.96573664  0.21337711     1.04300
C1467       C  0.81059554  0.53256521  0.21397227     0.94200
C1468       C  0.65546010  0.94306631  0.28933701     0.93300
C1469       C  0.76689305  0.94311494  0.28815940     0.85500
C1470       C  0.69848905  0.53089489  0.21408565     0.91700
N1471       N  0.57698887  0.67298349  0.28065169    -0.02500
C1472       C  0.61359439  0.68618803  0.30869579     0.00100
C1473       C  0.60917933  0.69721205  0.35849217    -0.22800
C1474       C  0.57033610  0.69530032  0.36043309    -0.23000
C1475       C  0.55292321  0.68364052  0.31157140     0.00000
H1476       H  0.63422683  0.71210832  0.38732731     0.13700
H1477       H  0.56003577  0.70889794  0.39088660     0.13800
N1478       N  0.89166826  0.80167096  0.22239171    -0.02500
C1479       C  0.91558864  0.78863005  0.19481590     0.00100
C1480       C  0.89866361  0.77408702  0.14624996    -0.22800
C1481       C  0.86037084  0.77320236  0.14494674    -0.23000
C1482       C  0.85558182  0.78739018  0.19267371     0.00000
H1483       H  0.90896908  0.75839330  0.11856587     0.13700
H1484       H  0.83558399  0.75681041  0.11602017     0.13800
O1485       O  0.54043384  0.80628751  0.24949154    -0.72000
O1486       O  0.96951240  0.68962679  0.18927148    -0.73000
O1487       O  0.97029255  0.77078641  0.18960477    -0.61600
O1488       O  0.53991388  0.72371526  0.24953676    -0.70000
O1489       O  0.49965339  0.70382773  0.32046463    -0.69600
O1490       O  0.92989499  0.75173952  0.26043852    -0.60800
O1491       O  0.92902732  0.66921174  0.26004430    -0.73300
O1492       O  0.50033825  0.78583057  0.32054426    -0.72100
Cu1493     Cu  0.00669986  0.74837763  0.21719300     1.04600
Cu1494     Cu  0.96328372  0.72691465  0.29298708     1.04300
C1495       C  0.52885217  0.81539810  0.29209013     0.94200
C1496       C  0.93986887  0.66031998  0.21676192     0.93300
C1497       C  0.94115502  0.77147486  0.21719409     0.85500
C1498       C  0.52838923  0.70303106  0.29209220     0.91700
O1499       O  0.66539842  0.72407983  0.24376929    -0.72000
O1500       O  0.78286559  0.76925182  0.18428037    -0.73000
O1501       O  0.70126055  0.68876811  0.18416625    -0.61600
O1502       O  0.74790275  0.80608703  0.24299540    -0.70000
O1503       O  0.76725702  0.78564936  0.31435246    -0.69600
O1504       O  0.72033032  0.66806596  0.25555683    -0.60800
O1505       O  0.80282259  0.74961470  0.25583657    -0.73300
O1506       O  0.68630070  0.70499974  0.31496793    -0.72100
Cu1507     Cu  0.72361862  0.74782361  0.21127670     1.04600
Cu1508     Cu  0.74494411  0.72631981  0.28760773     1.04300
C1509       C  0.65668914  0.70438953  0.28709764     0.94200
C1510       C  0.81211905  0.76960901  0.21281173     0.93300
C1511       C  0.70027166  0.65918626  0.21249724     0.85500
C1512       C  0.76775536  0.81511808  0.28615036     0.91700
C1513       C  0.88312024  0.94501229  0.67350759     0.81200
N1514       N  0.85871611  0.93352456  0.62872858    -0.77100
C1515       C  0.81379733  0.91123068  0.62943779     0.83600
N1516       N  0.79315362  0.90041222  0.67633709    -0.77100
C1517       C  0.81590628  0.91105392  0.72175229     0.83700
N1518       N  0.86064176  0.93310556  0.71960763    -0.78800
C1519       C  0.52916180  0.58811884  0.67266397     0.81200
N1520       N  0.54082251  0.61290969  0.62811000    -0.77100
C1521       C  0.56426680  0.65784251  0.62936329     0.83600
N1522       N  0.57605468  0.67798115  0.67649595    -0.77100
C1523       C  0.56522307  0.65480381  0.72157076     0.83700
N1524       N  0.54187342  0.61017197  0.71893399    -0.78800
C1525       C  0.52635197  0.94213478  0.67242810     0.81200
N1526       N  0.53592741  0.92908612  0.71834745    -0.77100
C1527       C  0.55786950  0.90624049  0.72033035     0.83600
N1528       N  0.57071865  0.89639025  0.67485449    -0.77100
C1529       C  0.56205067  0.90854836  0.62806268     0.83700
N1530       N  0.53994963  0.93144008  0.62757329    -0.78800
C1531       C  0.93412582  0.96982712  0.67226665     0.81200
N1532       N  0.95797571  0.51463853  0.67185467    -0.77100
C1533       C  0.50276001  0.53714032  0.67132669     0.83600
N1534       N  0.52354367  0.51311239  0.67134153    -0.77100
C1535       C  0.50158265  0.96840014  0.67161640     0.83700
N1536       N  0.95679370  0.94764288  0.67231812    -0.78800
N1537       N  0.88640837  0.58810693  0.91865679    -0.02500
C1538       C  0.85948148  0.55439162  0.95065180     0.00100
C1539       C  0.87954713  0.55388161  0.49080254    -0.22800
C1540       C  0.91761194  0.59149749  0.49145228    -0.23000
C1541       C  0.92097135  0.61435913  0.95017042     0.00000
H1542       H  0.86504783  0.53397191  0.52460237     0.13700
H1543       H  0.93706493  0.60508927  0.52578156     0.13800
N1544       N  0.57610160  0.68375886  0.58107908    -0.02500
C1545       C  0.60294116  0.67742240  0.54831037     0.00100
C1546       C  0.58184102  0.65360913  0.01287847    -0.22800
C1547       C  0.54338974  0.65250502  0.01441636    -0.23000
C1548       C  0.54153371  0.67600732  0.55005808     0.00000
H1549       H  0.59518758  0.64754225  0.97844867     0.13700
H1550       H  0.52259052  0.64569270  0.98114657     0.13800
N1551       N  0.88715834  0.80042189  0.91905008    -0.02500
C1552       C  0.92107865  0.80784294  0.95139088     0.00100
C1553       C  0.91731357  0.82932461  0.48906484    -0.22800
C1554       C  0.88036159  0.83119157  0.48768030    -0.23000
C1555       C  0.86015520  0.80801896  0.95026496     0.00000
H1556       H  0.93729995  0.83592935  0.52307016     0.13700
H1557       H  0.86705890  0.83913808  0.52070011     0.13800
O1558       O  0.96806961  0.69201080  0.93548643    -0.72000
O1559       O  0.53934387  0.81079618  0.00610429    -0.73000
O1560       O  0.53868028  0.72727188  0.00577040    -0.61600
O1561       O  0.96841494  0.77720781  0.93612987    -0.70000
O1562       O  0.92395009  0.75521525  0.49849304    -0.69600
O1563       O  0.49639406  0.70837095  0.56719556    -0.60800
O1564       O  0.49625000  0.79331760  0.56552179    -0.73300
O1565       O  0.92481044  0.67207613  0.49942905    -0.72100
Cu1566     Cu  0.00511167  0.75256437  0.96883159     1.04600
Cu1567     Cu  0.95889032  0.73156736  0.53478682     1.04300
C1568       C  0.93746043  0.66186810  0.96159470     0.94200
C1569       C  0.52594404  0.82274097  0.53759651     0.93300
C1570       C  0.52571842  0.70762540  0.53959885     0.85500
C1571       C  0.93782917  0.77683276  0.96240705     0.91700
O1572       O  0.66204854  0.72794599  0.00301353    -0.72000
O1573       O  0.78247097  0.77770791  0.93395798    -0.73000
O1574       O  0.69760281  0.69269722  0.93309544    -0.61600
O1575       O  0.74517472  0.81184351  0.00304547    -0.70000
O1576       O  0.76505477  0.79441540  0.56552946    -0.69600
O1577       O  0.71683877  0.67494902  0.49592464    -0.60800
O1578       O  0.79995183  0.75776566  0.49691030    -0.73300
O1579       O  0.68036998  0.70950070  0.56517323    -0.72100
Cu1580     Cu  0.72108362  0.75331026  0.96621610     1.04600
Cu1581     Cu  0.74128011  0.73345796  0.53299725     1.04300
C1582       C  0.65029433  0.70922554  0.53805222     0.94200
C1583       C  0.81239376  0.77697382  0.96049377     0.93300
C1584       C  0.69734592  0.66243808  0.95982966     0.85500
C1585       C  0.76477429  0.82442116  0.53877416     0.91700
N1586       N  0.57611115  0.89751496  0.57920240    -0.02500
C1587       C  0.54280114  0.87058239  0.54665300     0.00100
C1588       C  0.54402341  0.89061297  0.01612035    -0.22800
C1589       C  0.58164435  0.92866243  0.01542908    -0.23000
C1590       C  0.60257249  0.93242066  0.54825316     0.00000
H1591       H  0.52295509  0.87706314  0.98303420     0.13700
H1592       H  0.59423038  0.94917733  0.98171563     0.13800
N1593       N  0.67314753  0.58822675  0.91679558    -0.02500
C1594       C  0.66589158  0.61501867  0.94873966     0.00100
C1595       C  0.64246399  0.59600606  0.48618765    -0.22800
C1596       C  0.64418044  0.55901590  0.48848114    -0.23000
C1597       C  0.66545563  0.55394402  0.94861000     0.00000
H1598       H  0.63506667  0.60993260  0.51905597     0.13700
H1599       H  0.63781760  0.53960774  0.52291525     0.13800
N1600       N  0.78853839  0.89863815  0.58070222    -0.02500
C1601       C  0.79603487  0.87189326  0.54912556     0.00100
C1602       C  0.81943441  0.89222802  0.01083531    -0.22800
C1603       C  0.82042611  0.93063368  0.01170750    -0.23000
C1604       C  0.79608959  0.93270256  0.54884832     0.00000
H1605       H  0.82553938  0.87856137  0.97673129     0.13700
H1606       H  0.82719779  0.95114127  0.97815720     0.13800
O1607       O  0.74631481  0.93668964  0.00307086    -0.72000
O1608       O  0.69697436  0.50746042  0.93344729    -0.73000
O1609       O  0.78214682  0.50780542  0.93384077    -0.61600
O1610       O  0.66262461  0.93624558  0.00329127    -0.70000
O1611       O  0.68013843  0.97946797  0.56518276    -0.69600
O1612       O  0.80051499  0.54999639  0.49758997    -0.60800
O1613       O  0.71776427  0.55130853  0.49745732    -0.73300
O1614       O  0.76476366  0.97880467  0.56579721    -0.72100
Cu1615     Cu  0.72124600  0.97059112  0.96629400     1.04600
Cu1616     Cu  0.74162550  0.01642250  0.53357763     1.04300
C1617       C  0.76492752  0.94908209  0.53842007     0.94200
C1618       C  0.69670901  0.53755090  0.96004286     0.93300
C1619       C  0.81193492  0.53822088  0.96055179     0.85500
C1620       C  0.65036688  0.94946399  0.53794840     0.91700
C1621       C  0.57752142  0.54074329  0.82498628     0.81200
N1622       N  0.60237845  0.55297072  0.86948772    -0.77100
C1623       C  0.64733696  0.57573457  0.86822225     0.83600
N1624       N  0.66747954  0.58635481  0.82089214    -0.77100
C1625       C  0.64420046  0.57494620  0.77574408     0.83700
N1626       N  0.59953043  0.55215009  0.77860915    -0.78800
C1627       C  0.93154426  0.53844456  0.82576661     0.81200
N1628       N  0.92090499  0.55225966  0.87052893    -0.77100
C1629       C  0.89793308  0.57430084  0.86987269     0.83600
N1630       N  0.88555941  0.58257720  0.82299093    -0.77100
C1631       C  0.89534042  0.56952425  0.77761072     0.83700
N1632       N  0.91831375  0.54771599  0.77975905    -0.78800
C1633       C  0.95895874  0.94607557  0.82694540     0.81200
N1634       N  0.50369478  0.96987406  0.82661672    -0.77100
C1635       C  0.52650320  0.51466997  0.82657752     0.83600
N1636       N  0.50259106  0.53560375  0.82654525    -0.77100
C1637       C  0.95775002  0.51354795  0.82676511     0.83700
N1638       N  0.93688144  0.96887447  0.82679088    -0.78800
C1639       C  0.93415374  0.89505767  0.82598147     0.81200
N1640       N  0.92356531  0.87261090  0.77990549    -0.77100
C1641       C  0.90203243  0.82792271  0.77765504     0.83600
N1642       N  0.89064395  0.80509247  0.82312221    -0.77100
C1643       C  0.90017693  0.82569772  0.87014683     0.83700
N1644       N  0.92193446  0.87063536  0.87080673    -0.78800
N1645       N  0.56902652  0.89531551  0.77107191    -0.02500
C1646       C  0.60330218  0.92089708  0.80155674     0.00100
C1647       C  0.59746318  0.90617587  0.85180028    -0.22800
C1648       C  0.56091076  0.86735846  0.85182119    -0.23000
C1649       C  0.54598303  0.86010816  0.80162391     0.00000
H1650       H  0.62110336  0.91817709  0.88256602     0.13700
H1651       H  0.55094437  0.84391671  0.88272139     0.13800
N1652       N  0.88421562  0.58041098  0.72681864    -0.05300
C1653       C  0.84833214  0.55785764  0.69695035     0.00100
C1654       C  0.85421921  0.57421552  0.64749928    -0.22800
C1655       C  0.89305015  0.61077238  0.64732192    -0.23000
C1656       C  0.90921596  0.61527851  0.69670592     0.00000
H1657       H  0.83003537  0.56478105  0.61755546     0.13700
H1658       H  0.90445378  0.63511015  0.61733792     0.13800
N1659       N  0.66552480  0.58470470  0.72450261    -0.02500
C1660       C  0.67912421  0.62012668  0.69380023     0.00100
C1661       C  0.68686915  0.61245401  0.64381730    -0.22800
C1662       C  0.68284628  0.57279488  0.64405260    -0.23000
C1663       C  0.67321636  0.55818132  0.69430976     0.00000
H1664       H  0.70109820  0.63579304  0.61292256     0.13700
H1665       H  0.69396307  0.56000515  0.61355489     0.13800
N1666       N  0.79379342  0.89881244  0.77243234    -0.02500
C1667       C  0.78441384  0.86367897  0.80184874     0.00100
C1668       C  0.77205445  0.86719798  0.85127276    -0.22800
C1669       C  0.76841915  0.90305496  0.85156928    -0.23000
C1670       C  0.77905206  0.92005743  0.80246758     0.00000
H1671       H  0.75924820  0.84240806  0.88070539     0.13700
H1672       H  0.75275048  0.91149690  0.88143844     0.13800
O1673       O  0.79457722  0.54370014  0.75892418    -0.72000
O1674       O  0.67628611  0.97218360  0.81226131    -0.73000
O1675       O  0.75694061  0.97123269  0.81327904    -0.61600
O1676       O  0.71247016  0.54422841  0.75697633    -0.70000
O1677       O  0.69382848  0.50578153  0.68457781    -0.69600
O1678       O  0.73938138  0.93366960  0.74020084    -0.60800
O1679       O  0.65698165  0.93371115  0.73987219    -0.73300
O1680       O  0.77528389  0.50612400  0.68587724    -0.72100
Cu1681     Cu  0.73575472  0.00933036  0.78789853     1.04600
Cu1682     Cu  0.71573539  0.96848926  0.71001531     1.04300
C1683       C  0.80436834  0.53347890  0.71589104     0.94200
C1684       C  0.64725280  0.94455315  0.78262097     0.93300
C1685       C  0.75902139  0.94395964  0.78345718     0.85500
C1686       C  0.69248889  0.53368992  0.71387255     0.91700
N1687       N  0.57679937  0.67636708  0.77250195    -0.02500
C1688       C  0.61315149  0.68943594  0.80120283     0.00100
C1689       C  0.60822253  0.69987045  0.85108030    -0.22800
C1690       C  0.56950640  0.69801711  0.85260040    -0.23000
C1691       C  0.55249637  0.68660628  0.80355310     0.00000
H1692       H  0.63297430  0.71439228  0.88042674     0.13700
H1693       H  0.55881062  0.71115608  0.88316420     0.13800
N1694       N  0.89121484  0.80609698  0.72669422    -0.02500
C1695       C  0.91383650  0.79264023  0.69728330     0.00100
C1696       C  0.90001274  0.78550019  0.64664610    -0.22800
C1697       C  0.86459523  0.78988864  0.64499190    -0.23000
C1698       C  0.85794797  0.79884441  0.69490324     0.00000
H1699       H  0.91005708  0.77157011  0.61633941     0.13700
H1700       H  0.84168527  0.77909640  0.61344212     0.13800
O1701       O  0.53516231  0.80635512  0.74071237    -0.72000
O1702       O  0.96349065  0.68746070  0.68707188    -0.73000
O1703       O  0.96286612  0.76808003  0.68641630    -0.61600
O1704       O  0.53671610  0.72469906  0.74162094    -0.70000
O1705       O  0.49865858  0.70542754  0.81433820    -0.69600
O1706       O  0.92548400  0.75108753  0.75960650    -0.60800
O1707       O  0.92523601  0.66854071  0.75964157    -0.73300
O1708       O  0.49791298  0.78641573  0.81399321    -0.72100
Cu1709     Cu  0.00093006  0.74720283  0.71142358     1.04600
Cu1710     Cu  0.96036706  0.72698796  0.78951454     1.04300
C1711       C  0.52420931  0.81579946  0.78354849     0.94200
C1712       C  0.93518979  0.65868411  0.71645034     0.93300
C1713       C  0.93613010  0.77090178  0.71639157     0.85500
C1714       C  0.52681337  0.70478619  0.78470086     0.91700
O1715       O  0.66566256  0.72817057  0.73744820    -0.72000
O1716       O  0.78442191  0.77599189  0.68262728    -0.73000
O1717       O  0.70359169  0.69380201  0.68180916    -0.61600
O1718       O  0.74714412  0.81102118  0.73820451    -0.70000
O1719       O  0.76672793  0.79148701  0.81017164    -0.69600
O1720       O  0.72145134  0.67376091  0.75467318    -0.60800
O1721       O  0.80369159  0.75630326  0.75468988    -0.73300
O1722       O  0.68615170  0.71052028  0.81012564    -0.72100
Cu1723     Cu  0.72455639  0.75293688  0.70732495     1.04600
Cu1724     Cu  0.74531376  0.73229059  0.78483395     1.04300
C1725       C  0.65662581  0.70864207  0.78083602     0.94200
C1726       C  0.81351506  0.77753699  0.71250491     0.93300
C1727       C  0.70110648  0.66439963  0.71186876     0.85500
C1728       C  0.76706912  0.82051246  0.78132312     0.91700
loop_ 
_geom_bond_atom_site_label_1 
_geom_bond_atom_site_label_2 
_geom_bond_distance 
_geom_bond_site_symmetry_2 
_ccdc_geom_bond_type 
C1            N2   1.388       .  A
C1            N6   1.381       .  A
C1           C19   1.584       .  S
N2            C3   1.398       .  A
C3            N4   1.371       .  A
C3           N88   1.487       .  S
N4            C5   1.370       .  A
C5            N6   1.388       .  A
C5          N154   1.476       .  S
C7            N8   1.389       .  A
C7           N12   1.380       .  A
C7           C21   1.584       .  S
N8            C9   1.398       .  A
C9           N10   1.371       .  A
C9           N32   1.489       .  S
N10          C11   1.370       .  A
C11          N12   1.387       .  A
C11         N175   1.475       .  S
C13          N14   1.385       .  A
C13          N18   1.382       .  A
C13          C23   1.584       .  S
N14          C15   1.393       .  A
C15          N16   1.372       .  A
C15         N133   1.482       .  S
N16          C17   1.373       .  A
C17          N18   1.393       .  A
C17          N74   1.483       .  S
C19          N24   1.392       .  A
C19         N452   1.391       .  A
N20         C451   1.391   1_545  A
N20         C885   1.391       .  A
C21          N22   1.391       .  A
C21         N884   1.391   1_455  A
N22         C455   1.391   1_545  A
C23         N454   1.391       .  A
C23         N888   1.391   1_455  A
N24         C887   1.391       .  A
N25          C29   1.384       .  A
N25          C26   1.383       .  A
N25         C117   1.489       .  S
C26         C107   1.526       .  S
C26         C243   1.382       .  A
C27          C28   1.358       .  A
C27         C242   1.381       .  A
C27          H30   1.084   1_556  S
C28         C245   1.383       .  A
C28          H31   1.084   1_556  S
C29          C56   1.528       .  S
C29         C244   1.382       .  A
N32          C36   1.386       .  A
N32          C33   1.386       .  A
C33          C70   1.530       .  S
C33         C250   1.381       .  A
C34          C35   1.357       .  A
C34         C249   1.382       .  A
C34          H37   1.084       .  S
C35         C252   1.383       .  A
C35          H38   1.084       .  S
C36          C58   1.528       .  S
C36         C251   1.382       .  A
N39          C43   1.384       .  A
N39          C40   1.382       .  A
N39         C131   1.480       .  S
C40          C59   1.521       .  S
C40         C257   1.381       .  A
C41          C42   1.358       .  A
C41         C256   1.382       .  A
C41          H44   1.084   1_556  S
C42         C259   1.383       .  A
C42          H45   1.084   1_556  S
C43          C71   1.522       .  S
C43         C258   1.383       .  A
O46         Cu54   2.084       .  S
O46          C56   1.282       .  A
O47        Cu918   2.059       .  S
O47         C273   1.288       .  A
O48        Cu918   2.060       .  S
O48         C274   1.289       .  A
O49         Cu54   2.084       .  S
O49          C59   1.283       .  A
O50         Cu55   2.068       .  S
O50         C275   1.289   1_554  A
O51        Cu919   2.089       .  S
O51          C58   1.283   1_655  A
O52        Cu919   2.087       .  S
O52          C57   1.283   1_655  A
O53         Cu55   2.066       .  S
O53         C272   1.289   1_554  A
Cu54        O911   2.060       .  S
Cu54        O912   2.060       .  S
Cu54       Cu271   2.353       .  S
Cu55        O915   2.089       .  S
Cu55        O916   2.087       .  S
Cu55       Cu270   2.352   1_554  S
C56         O269   1.290       .  A
C57          C75   1.522       .  S
C57         O263   1.287       .  A
C58         O264   1.289       .  A
C59         O266   1.287       .  A
O60         Cu68   2.064       .  S
O60         C286   1.289       .  A
O61         Cu68   2.086       .  S
O61          C71   1.283       .  A
O62         Cu68   2.080       .  S
O62          C72   1.282       .  A
O63         Cu68   2.060       .  S
O63         C289   1.288       .  A
O64         Cu69   2.093       .  S
O64          C73   1.284       .  A
O65         Cu69   2.069       .  S
O65         C288   1.289   1_554  A
O66         Cu69   2.065       .  S
O66         C287   1.288   1_554  A
O67         Cu69   2.089       .  S
O67          C70   1.283       .  A
Cu68       Cu285   2.353       .  S
Cu69       Cu284   2.351   1_554  S
C70         O276   1.290       .  A
C71         O282   1.287       .  A
C72          C82   1.525       .  S
C72         O281   1.289       .  A
C73          C89   1.527       .  S
C73         O279   1.288       .  A
N74          C78   1.386       .  A
N74          C75   1.384       .  A
C75         C292   1.382       .  A
C76          C77   1.358       .  A
C76         C291   1.382       .  A
C76          H79   1.083       .  S
C77         C294   1.383       .  A
C77          H80   1.084       .  S
C78         C108   1.525       .  S
C78         C293   1.382       .  A
N81          C85   1.381       .  A
N81          C82   1.385       .  A
N81         C111   1.483       .  S
C82         C299   1.383       .  A
C83          C84   1.358       .  A
C83         C298   1.382       .  A
C83          H86   1.084   1_556  S
C84         C301   1.382       .  A
C84          H87   1.084   1_556  S
C85         C106   1.520       .  S
C85         C300   1.381       .  A
N88          C92   1.387       .  A
N88          C89   1.385       .  A
C89         C306   1.381       .  A
C90          C91   1.357       .  A
C90         C305   1.382       .  A
C90          H93   1.084       .  S
C91         C308   1.382       .  A
C91          H94   1.084       .  S
C92         C105   1.531       .  S
C92         C307   1.383       .  A
O95        Cu103   2.059       .  S
O95         C321   1.288       .  A
O96        Cu535   2.086   1_545  S
O96         C106   1.283       .  A
O97        Cu535   2.083   1_545  S
O97         C107   1.282       .  A
O98        Cu103   2.061       .  S
O98         C324   1.288       .  A
O99        Cu104   2.085       .  S
O99         C108   1.283       .  A
O100       Cu536   2.060       .  S
O100        C323   1.288   1_554  A
O101       Cu536   2.073       .  S
O101        C322   1.290   1_554  A
O102       Cu104   2.093       .  S
O102        C105   1.284       .  A
Cu103       O528   2.086       .  S
Cu103       O529   2.083       .  S
Cu103      Cu320   2.353       .  S
Cu104       O532   2.060       .  S
Cu104       O533   2.073       .  S
Cu104      Cu319   2.351   1_554  S
C105        O311   1.289       .  A
C106        O317   1.286       .  A
C107        O316   1.289       .  A
C108        O314   1.288       .  A
C109        N110   1.385       .  A
C109        N114   1.382       .  A
C109        C123   1.583       .  S
N110        C111   1.395       .  A
C111        N112   1.370       .  A
N112        C113   1.369       .  A
C113        N114   1.390       .  A
C113        N147   1.477       .  S
C115        N116   1.391       .  A
C115        N120   1.378       .  A
C115        C125   1.583       .  S
N116        C117   1.400       .  A
C117        N118   1.370       .  A
N118        C119   1.369       .  A
C119        N120   1.385       .  A
C119        N140   1.472       .  S
C121        N126   1.391       .  A
C121        N986   1.391       .  A
C121        C127   1.584       .  S
N122        C985   1.391   1_455  A
N122        C555   1.391       .  A
C123        N124   1.390       .  A
C123        N554   1.391   1_545  A
N124        C989   1.390   1_455  A
C125        N988   1.390       .  A
C125        N558   1.391   1_545  A
N126        C557   1.391       .  A
C127        N128   1.385       .  A
C127        N132   1.382       .  A
N128        C129   1.393       .  A
C129        N130   1.370       .  A
C129        N182   1.480       .  S
N130        C131   1.370       .  A
C131        N132   1.393       .  A
N133        C137   1.366       .  A
N133        C134   1.363       .  A
C134        C172   1.455       .  S
C134        C135   1.380       .  A
C135        C136   1.358       .  A
C135        H138   1.083       .  S
C136        C137   1.380       .  A
C136        H139   1.083       .  S
C137        C199   1.457       .  S
N140        C144   1.360       .  A
N140        C141   1.363       .  A
C141        C171   1.456       .  S
C141        C142   1.380       .  A
C142        C143   1.361       .  A
C142        H145   1.084       .  S
C143        C144   1.380       .  A
C143        H146   1.083       .  S
C144        C200   1.455       .  S
N147        C151   1.363       .  A
N147        C148   1.363       .  A
C148        C215   1.455       .  S
C148        C149   1.379       .  A
C149        C150   1.358       .  A
C149        H152   1.083       .  S
C150        C151   1.381       .  A
C150        H153   1.083       .  S
C151        C174   1.456       .  S
N154        C158   1.364       .  A
N154        C155   1.364       .  A
C155        C216   1.457       .  S
C155        C156   1.380       .  A
C156        C157   1.359       .  A
C156        H159   1.083       .  S
C157        C158   1.379       .  A
C157        H160   1.083       .  S
C158        C173   1.455       .  S
O161       Cu601   1.989       .  S
O161        C171   1.276       .  A
O162       Cu169   1.976       .  S
O162        C172   1.275       .  A
O163       Cu169   1.991       .  S
O163        C173   1.277       .  A
O164       Cu601   2.001       .  S
O164        C174   1.278       .  A
O165       Cu602   1.977   1_545  S
O165        C174   1.275       .  A
O166       Cu170   1.990       .  S
O166        C173   1.276       .  A
O167       Cu170   2.000       .  S
O167        C172   1.278       .  A
O168       Cu602   1.992   1_545  S
O168        C171   1.277       .  A
Cu169       O593   1.989       .  S
Cu169       O596   2.001       .  S
Cu169      Cu170   2.381       .  S
Cu170       O597   1.977       .  S
Cu170       O600   1.992       .  S
N175        C179   1.363       .  A
N175        C176   1.361       .  A
C176        C213   1.455       .  S
C176        C177   1.380       .  A
C177        C178   1.360       .  A
C177        H180   1.082       .  S
C178        C179   1.380       .  A
C178        H181   1.084       .  S
C179        C202   1.455       .  S
N182        C186   1.366       .  A
N182        C183   1.364       .  A
C183        C201   1.454       .  S
C183        C184   1.380       .  A
C184        C185   1.357       .  A
C184        H187   1.083       .  S
C185        C186   1.379       .  A
C185        H188   1.084       .  S
C186        C214   1.454       .  S
O189      Cu1061   1.993       .  S
O189        C199   1.277       .  A
O190       Cu197   1.984       .  S
O190        C200   1.275       .  A
O191       Cu197   1.975       .  S
O191        C201   1.275       .  A
O192      Cu1061   1.988       .  S
O192        C202   1.276       .  A
O193      Cu1062   1.991       .  S
O193        C202   1.276   1_655  A
O194       Cu198   1.998       .  S
O194        C201   1.277       .  A
O195       Cu198   1.995       .  S
O195        C200   1.277       .  A
O196      Cu1062   1.986   1_455  S
O196        C199   1.277       .  A
Cu197      O1053   1.993       .  S
Cu197      O1056   1.988       .  S
Cu197      Cu198   2.381       .  S
Cu198      O1057   1.991       .  S
Cu198      O1060   1.986       .  S
O203       Cu211   2.003       .  S
O203        C213   1.278       .  A
O204       Cu211   1.990       .  S
O204        C214   1.277       .  A
O205       Cu211   1.981       .  S
O205        C215   1.275       .  A
O206       Cu211   1.995       .  S
O206        C216   1.276       .  A
O207       Cu212   1.986       .  S
O207        C216   1.276       .  A
O208       Cu212   1.997       .  S
O208        C215   1.278       .  A
O209       Cu212   1.987       .  S
O209        C214   1.275       .  A
O210       Cu212   1.975       .  S
O210        C213   1.274       .  A
Cu211      Cu212   2.381       .  S
C217        N218   1.385       .  A
C217        N222   1.383       .  A
C217        C235   1.585       .  S
N218        C219   1.395       .  A
C219        N220   1.373       .  A
C219        N304   1.486       .  S
N220        C221   1.372       .  A
C221        N222   1.391       .  A
C221        N370   1.481       .  S
C223        N224   1.387       .  A
C223        N228   1.381       .  A
C223        C237   1.585       .  S
N224        C225   1.397       .  A
C225        N226   1.373       .  A
C225        N248   1.487       .  S
N226        C227   1.371       .  A
C227        N228   1.389       .  A
C227        N391   1.479       .  S
C229        N230   1.382       .  A
C229        N234   1.385       .  A
C229        C239   1.583       .  S
N230        C231   1.390       .  A
C231        N232   1.373       .  A
C231        N349   1.481       .  S
N232        C233   1.374       .  A
C233        N234   1.395       .  A
C233        N290   1.486       .  S
C235        N668   1.392       .  A
C235        N240   1.391       .  A
N236        C667   1.392   1_545  A
N236       C1101   1.392       .  A
C237       N1100   1.392   1_455  A
C237        N238   1.391       .  A
N238        C671   1.391   1_545  A
C239        N670   1.391       .  A
C239       N1104   1.391   1_455  A
N240       C1103   1.391       .  A
N241        C245   1.387       .  A
N241        C242   1.384       .  A
N241        C333   1.488       .  S
C242        C323   1.523       .  S
C243        C244   1.358       .  A
C243        H246   1.084       .  S
C244        H247   1.084       .  S
C245        C272   1.527       .  S
N248        C252   1.383       .  A
N248        C249   1.383       .  A
C249        C286   1.523       .  S
C250        C251   1.359       .  A
C250        H253   1.083   1_554  S
C251        H254   1.084   1_554  S
C252        C274   1.522       .  S
N255        C259   1.388       .  A
N255        C256   1.388       .  A
N255        C347   1.490       .  S
C256        C275   1.530       .  S
C257        C258   1.359       .  A
C257        H260   1.084       .  S
C258        H261   1.084       .  S
C259        C287   1.529       .  S
O262       Cu270   2.085       .  S
O262        C272   1.283       .  A
O263      Cu1134   2.059   1_554  S
O264      Cu1134   2.067   1_554  S
O265       Cu270   2.093       .  S
O265        C275   1.284       .  A
O266       Cu271   2.055       .  S
O267      Cu1135   2.076       .  S
O267        C274   1.282   1_655  A
O268      Cu1135   2.091       .  S
O268        C273   1.284   1_655  A
O269       Cu271   2.069       .  S
Cu270      O1127   2.059   1_556  S
Cu270      O1128   2.067   1_556  S
Cu271      O1131   2.076       .  S
Cu271      O1132   2.091       .  S
C273        C291   1.525       .  S
O276       Cu284   2.071   1_554  S
O277       Cu284   2.093       .  S
O277        C287   1.284       .  A
O278       Cu284   2.083       .  S
O278        C288   1.282       .  A
O279       Cu284   2.061   1_554  S
O280       Cu285   2.086       .  S
O280        C289   1.283       .  A
O281       Cu285   2.063       .  S
O282       Cu285   2.055       .  S
O283       Cu285   2.080       .  S
O283        C286   1.282       .  A
C288        C298   1.527       .  S
C289        C305   1.524       .  S
N290        C294   1.387       .  A
N290        C291   1.385       .  A
C292        C293   1.358       .  A
C292        H295   1.083   1_554  S
C293        H296   1.084   1_554  S
C294        C324   1.528       .  S
N297        C301   1.388       .  A
N297        C298   1.386       .  A
N297        C327   1.491       .  S
C299        C300   1.358       .  A
C299        H302   1.084       .  S
C300        H303   1.083       .  S
C301        C322   1.530       .  S
N304        C308   1.383       .  A
N304        C305   1.384       .  A
C306        C307   1.359       .  A
C306        H309   1.083   1_554  S
C307        H310   1.084   1_554  S
C308        C321   1.522       .  S
O311       Cu319   2.068   1_554  S
O312       Cu751   2.091   1_545  S
O312        C322   1.283       .  A
O313       Cu751   2.084   1_545  S
O313        C323   1.283       .  A
O314       Cu319   2.065   1_554  S
O315       Cu320   2.090       .  S
O315        C324   1.284       .  A
O316       Cu752   2.064       .  S
O317       Cu752   2.054       .  S
O318       Cu320   2.077       .  S
O318        C321   1.282       .  A
Cu319       O744   2.091       .  S
Cu319       O745   2.084       .  S
Cu320       O748   2.064       .  S
Cu320       O749   2.054       .  S
C325        N326   1.387       .  A
C325        N330   1.382       .  A
C325        C339   1.585       .  S
N326        C327   1.397       .  A
C327        N328   1.376       .  A
N328        C329   1.374       .  A
C329        N330   1.390       .  A
C329        N363   1.483       .  S
C331        N332   1.386       .  A
C331        N336   1.382       .  A
C331        C341   1.585       .  S
N332        C333   1.396       .  A
C333        N334   1.374       .  A
N334        C335   1.373       .  A
C335        N336   1.390       .  A
C335        N356   1.481       .  S
C337       N1202   1.391       .  A
C337        N342   1.392       .  A
C337        C343   1.585       .  S
N338       C1201   1.391   1_455  A
N338        C771   1.391       .  A
C339        N770   1.391   1_545  A
C339        N340   1.392       .  A
N340       C1205   1.392   1_455  A
C341       N1204   1.392       .  A
C341        N774   1.392   1_545  A
N342        C773   1.392       .  A
C343        N344   1.382       .  A
C343        N348   1.386       .  A
N344        C345   1.390       .  A
C345        N346   1.374       .  A
C345        N398   1.483       .  S
N346        C347   1.376       .  A
C347        N348   1.396       .  A
N349        C353   1.364       .  A
N349        C350   1.360       .  A
C350        C388   1.452       .  S
C350        C351   1.380       .  A
C351        C352   1.355       .  A
C351        H354   1.083       .  S
C352        C353   1.380       .  A
C352        H355   1.083       .  S
C353        C415   1.454       .  S
N356        C360   1.362       .  A
N356        C357   1.367       .  A
C357        C387   1.453       .  S
C357        C358   1.380       .  A
C358        C359   1.355       .  A
C358        H361   1.083       .  S
C359        C360   1.379       .  A
C359        H362   1.084       .  S
C360        C416   1.450       .  S
N363        C367   1.360       .  A
N363        C364   1.365       .  A
C364        C431   1.453       .  S
C364        C365   1.379       .  A
C365        C366   1.355       .  A
C365        H368   1.084       .  S
C366        C367   1.381       .  A
C366        H369   1.083       .  S
C367        C390   1.452       .  S
N370        C374   1.365       .  A
N370        C371   1.362       .  A
C371        C432   1.450       .  S
C371        C372   1.380       .  A
C372        C373   1.354       .  A
C372        H375   1.083       .  S
C373        C374   1.378       .  A
C373        H376   1.083       .  S
C374        C389   1.450       .  S
O377       Cu817   1.988       .  S
O377        C387   1.275       .  A
O378       Cu385   1.970       .  S
O378        C388   1.275       .  A
O379       Cu385   1.976       .  S
O379        C389   1.276       .  A
O380       Cu817   1.988       .  S
O380        C390   1.277       .  A
O381       Cu818   1.971   1_545  S
O381        C390   1.275       .  A
O382       Cu386   1.984       .  S
O382        C389   1.275       .  A
O383       Cu386   1.992       .  S
O383        C388   1.278       .  A
O384       Cu818   1.981   1_545  S
O384        C387   1.278       .  A
Cu385       O809   1.988       .  S
Cu385       O812   1.988       .  S
Cu385      Cu386   2.382       .  S
Cu386       O813   1.971       .  S
Cu386       O816   1.981       .  S
N391        C395   1.363       .  A
N391        C392   1.364       .  A
C392        C429   1.452       .  S
C392        C393   1.380       .  A
C393        C394   1.356       .  A
C393        H396   1.084       .  S
C394        C395   1.379       .  A
C394        H397   1.084       .  S
C395        C418   1.451       .  S
N398        C402   1.363       .  A
N398        C399   1.363       .  A
C399        C417   1.452       .  S
C399        C400   1.379       .  A
C400        C401   1.355       .  A
C400        H403   1.083       .  S
C401        C402   1.380       .  A
C401        H404   1.083       .  S
C402        C430   1.454       .  S
O405      Cu1277   1.993       .  S
O405        C415   1.277       .  A
O406       Cu413   1.980       .  S
O406        C416   1.276       .  A
O407       Cu413   1.963       .  S
O407        C417   1.275       .  A
O408      Cu1277   1.981       .  S
O408        C418   1.275       .  A
O409      Cu1278   1.985       .  S
O409        C418   1.276   1_655  A
O410       Cu414   1.995       .  S
O410        C417   1.277       .  A
O411       Cu414   1.985       .  S
O411        C416   1.276       .  A
O412      Cu1278   1.969       .  S
O412        C415   1.276   1_655  A
Cu413      O1269   1.993       .  S
Cu413      O1272   1.981       .  S
Cu413      Cu414   2.382       .  S
Cu414      O1273   1.985       .  S
Cu414      O1276   1.969       .  S
O419       Cu427   1.995       .  S
O419        C429   1.277       .  A
O420       Cu427   1.981       .  S
O420        C430   1.277       .  A
O421       Cu427   1.976       .  S
O421        C431   1.277       .  A
O422       Cu427   1.987       .  S
O422        C432   1.276       .  A
O423       Cu428   1.974       .  S
O423        C432   1.275       .  A
O424       Cu428   1.988       .  S
O424        C431   1.276       .  A
O425       Cu428   1.982       .  S
O425        C430   1.276       .  A
O426       Cu428   1.970       .  S
O426        C429   1.276       .  A
Cu427      Cu428   2.382       .  S
C433        N434   1.388       .  A
C433        N438   1.380       .  A
C433        C451   1.584       .  S
N434        C435   1.398       .  A
C435        N436   1.371       .  A
C435        N520   1.487       .  S
N436        C437   1.370       .  A
C437        N438   1.388       .  A
C437        N586   1.476       .  S
C439        N440   1.389       .  A
C439        N444   1.380       .  A
C439        C453   1.584       .  S
N440        C441   1.398       .  A
C441        N442   1.371       .  A
C441        N464   1.489       .  S
N442        C443   1.370       .  A
C443        N444   1.387       .  A
C443        N607   1.475       .  S
C445        N446   1.385       .  A
C445        N450   1.382       .  A
C445        C455   1.584       .  S
N446        C447   1.393       .  A
C447        N448   1.372       .  A
C447        N565   1.482       .  S
N448        C449   1.373       .  A
C449        N450   1.393       .  A
C449        N506   1.483       .  S
C451        N456   1.392       .  A
N452       C1317   1.391       .  A
C453       N1316   1.391   1_455  A
C453        N454   1.391       .  A
C455       N1320   1.391   1_455  A
N456       C1319   1.391       .  A
N457        C461   1.384       .  A
N457        C458   1.383       .  A
N457        C549   1.489       .  S
C458        C539   1.526       .  S
C458        C675   1.382       .  A
C459        C674   1.381       .  A
C459        C460   1.358       .  A
C459        H462   1.084   1_556  S
C460        C677   1.383       .  A
C460        H463   1.084   1_556  S
C461        C488   1.529       .  S
C461        C676   1.382       .  A
N464        C468   1.386       .  A
N464        C465   1.386       .  A
C465        C502   1.530       .  S
C465        C682   1.381       .  A
C466        C681   1.382       .  A
C466        C467   1.357       .  A
C466        H469   1.084       .  S
C467        C684   1.383       .  A
C467        H470   1.084       .  S
C468        C490   1.528       .  S
C468        C683   1.382       .  A
N471        C475   1.384       .  A
N471        C472   1.382       .  A
N471        C563   1.480       .  S
C472        C491   1.521       .  S
C472        C689   1.381       .  A
C473        C688   1.382       .  A
C473        C474   1.358       .  A
C473        H476   1.084   1_556  S
C474        C691   1.383       .  A
C474        H477   1.084   1_556  S
C475        C503   1.522       .  S
C475        C690   1.383       .  A
O478       Cu486   2.084       .  S
O478        C488   1.282       .  A
O479      Cu1350   2.060       .  S
O479        C705   1.288       .  A
O480      Cu1350   2.060       .  S
O480        C706   1.289       .  A
O481       Cu486   2.084       .  S
O481        C491   1.283       .  A
O482       Cu487   2.068       .  S
O482        C707   1.289   1_554  A
O483      Cu1351   2.089       .  S
O483        C490   1.283   1_655  A
O484      Cu1351   2.087       .  S
O484        C489   1.283   1_655  A
O485       Cu487   2.066       .  S
O485        C704   1.289   1_554  A
Cu486      O1343   2.060       .  S
Cu486      O1344   2.059       .  S
Cu486      Cu703   2.353       .  S
Cu487      O1347   2.089       .  S
Cu487      O1348   2.087       .  S
Cu487      Cu702   2.352   1_554  S
C488        O701   1.290       .  A
C489        C507   1.522       .  S
C489        O695   1.287       .  A
C490        O696   1.289       .  A
C491        O698   1.287       .  A
O492       Cu500   2.064       .  S
O492        C718   1.289       .  A
O493       Cu500   2.086       .  S
O493        C503   1.283       .  A
O494       Cu500   2.080       .  S
O494        C504   1.282       .  A
O495       Cu500   2.060       .  S
O495        C721   1.288       .  A
O496       Cu501   2.093       .  S
O496        C505   1.284       .  A
O497       Cu501   2.069       .  S
O497        C720   1.290   1_554  A
O498       Cu501   2.065       .  S
O498        C719   1.288   1_554  A
O499       Cu501   2.089       .  S
O499        C502   1.283       .  A
Cu500      Cu717   2.353       .  S
Cu501      Cu716   2.351   1_554  S
C502        O708   1.290       .  A
C503        O714   1.287       .  A
C504        C514   1.525       .  S
C504        O713   1.289       .  A
C505        C521   1.527       .  S
C505        O711   1.288       .  A
N506        C510   1.386       .  A
N506        C507   1.384       .  A
C507        C724   1.382       .  A
C508        C723   1.382       .  A
C508        C509   1.358       .  A
C508        H511   1.083       .  S
C509        C726   1.383       .  A
C509        H512   1.084       .  S
C510        C540   1.525       .  S
C510        C725   1.381       .  A
N513        C517   1.381       .  A
N513        C514   1.385       .  A
N513        C543   1.483       .  S
C514        C731   1.383       .  A
C515        C730   1.382       .  A
C515        C516   1.358       .  A
C515        H518   1.084   1_556  S
C516        C733   1.382       .  A
C516        H519   1.084   1_556  S
C517        C538   1.520       .  S
C517        C732   1.381       .  A
N520        C524   1.387       .  A
N520        C521   1.385       .  A
C521        C738   1.382       .  A
C522        C737   1.382       .  A
C522        C523   1.358       .  A
C522        H525   1.084       .  S
C523        C740   1.382       .  A
C523        H526   1.084       .  S
C524        C537   1.531       .  S
C524        C739   1.383       .  A
O527       Cu535   2.059       .  S
O527        C753   1.288       .  A
O528        C538   1.283       .  A
O529        C539   1.282       .  A
O530       Cu535   2.061       .  S
O530        C756   1.288       .  A
O531       Cu536   2.085   1_565  S
O531        C540   1.283       .  A
O532        C755   1.288   1_554  A
O533        C754   1.290   1_554  A
O534       Cu536   2.093   1_565  S
O534        C537   1.284       .  A
Cu535      Cu752   2.353   1_565  S
Cu536      Cu751   2.351   1_544  S
C537        O743   1.289       .  A
C538        O749   1.286       .  A
C539        O748   1.289       .  A
C540        O746   1.288       .  A
C541        N542   1.385       .  A
C541        N546   1.383       .  A
C541        C555   1.583       .  S
N542        C543   1.395       .  A
C543        N544   1.370       .  A
N544        C545   1.369       .  A
C545        N546   1.390       .  A
C545        N579   1.477       .  S
C547        N548   1.391       .  A
C547        N552   1.378       .  A
C547        C557   1.584       .  S
N548        C549   1.400       .  A
C549        N550   1.370       .  A
N550        C551   1.369       .  A
C551        N552   1.385       .  A
C551        N572   1.472       .  S
C553       N1418   1.391       .  A
C553        N558   1.391       .  A
C553        C559   1.584       .  S
N554       C1417   1.391   1_455  A
C555        N556   1.391       .  A
N556       C1421   1.390   1_455  A
C557       N1420   1.390       .  A
C559        N560   1.385       .  A
C559        N564   1.382       .  A
N560        C561   1.393       .  A
C561        N562   1.370       .  A
C561        N614   1.480       .  S
N562        C563   1.370       .  A
C563        N564   1.393       .  A
N565        C569   1.366       .  A
N565        C566   1.363       .  A
C566        C604   1.455       .  S
C566        C567   1.380       .  A
C567        C568   1.358       .  A
C567        H570   1.083       .  S
C568        C569   1.380       .  A
C568        H571   1.083       .  S
C569        C631   1.457       .  S
N572        C576   1.360       .  A
N572        C573   1.363       .  A
C573        C603   1.456       .  S
C573        C574   1.380       .  A
C574        C575   1.361       .  A
C574        H577   1.084       .  S
C575        C576   1.380       .  A
C575        H578   1.083       .  S
C576        C632   1.455       .  S
N579        C583   1.363       .  A
N579        C580   1.363       .  A
C580        C647   1.455       .  S
C580        C581   1.379       .  A
C581        C582   1.358       .  A
C581        H584   1.083       .  S
C582        C583   1.381       .  A
C582        H585   1.083       .  S
C583        C606   1.456       .  S
N586        C590   1.364       .  A
N586        C587   1.364       .  A
C587        C648   1.457       .  S
C587        C588   1.380       .  A
C588        C589   1.359       .  A
C588        H591   1.083       .  S
C589        C590   1.379       .  A
C589        H592   1.083       .  S
C590        C605   1.455       .  S
O593        C603   1.276       .  A
O594       Cu601   1.976   1_565  S
O594        C604   1.275       .  A
O595       Cu601   1.991   1_565  S
O595        C605   1.277       .  A
O596        C606   1.278       .  A
O597        C606   1.275       .  A
O598       Cu602   1.989       .  S
O598        C605   1.276       .  A
O599       Cu602   2.000       .  S
O599        C604   1.278       .  A
O600        C603   1.277       .  A
Cu601      Cu602   2.381   1_545  S
N607        C611   1.363       .  A
N607        C608   1.361       .  A
C608        C645   1.455       .  S
C608        C609   1.380       .  A
C609        C610   1.360       .  A
C609        H612   1.082       .  S
C610        C611   1.380       .  A
C610        H613   1.084       .  S
C611        C634   1.455       .  S
N614        C618   1.366       .  A
N614        C615   1.364       .  A
C615        C633   1.454       .  S
C615        C616   1.380       .  A
C616        C617   1.357       .  A
C616        H619   1.083       .  S
C617        C618   1.379       .  A
C617        H620   1.084       .  S
C618        C646   1.454       .  S
O621      Cu1493   1.994       .  S
O621        C631   1.277       .  A
O622       Cu629   1.984       .  S
O622        C632   1.275       .  A
O623       Cu629   1.975       .  S
O623        C633   1.275       .  A
O624      Cu1493   1.988       .  S
O624        C634   1.276       .  A
O625      Cu1494   1.991       .  S
O625        C634   1.276   1_655  A
O626       Cu630   1.998       .  S
O626        C633   1.277       .  A
O627       Cu630   1.995       .  S
O627        C632   1.277       .  A
O628      Cu1494   1.986   1_455  S
O628        C631   1.277       .  A
Cu629      O1485   1.994       .  S
Cu629      O1488   1.988       .  S
Cu629      Cu630   2.381       .  S
Cu630      O1489   1.991       .  S
Cu630      O1492   1.986       .  S
O635       Cu643   2.003       .  S
O635        C645   1.278       .  A
O636       Cu643   1.990       .  S
O636        C646   1.277       .  A
O637       Cu643   1.981       .  S
O637        C647   1.275       .  A
O638       Cu643   1.995       .  S
O638        C648   1.276       .  A
O639       Cu644   1.986       .  S
O639        C648   1.276       .  A
O640       Cu644   1.997       .  S
O640        C647   1.278       .  A
O641       Cu644   1.987       .  S
O641        C646   1.275       .  A
O642       Cu644   1.975       .  S
O642        C645   1.274       .  A
Cu643      Cu644   2.381       .  S
C649        N650   1.385       .  A
C649        N654   1.383       .  A
C649        C667   1.585       .  S
N650        C651   1.395       .  A
C651        N652   1.373       .  A
C651        N736   1.486       .  S
N652        C653   1.372       .  A
C653        N654   1.391       .  A
C653        N802   1.481       .  S
C655        N656   1.387       .  A
C655        N660   1.381       .  A
C655        C669   1.585       .  S
N656        C657   1.397       .  A
C657        N658   1.373       .  A
C657        N680   1.487       .  S
N658        C659   1.371       .  A
C659        N660   1.389       .  A
C659        N823   1.479       .  S
C661        N662   1.382       .  A
C661        N666   1.385       .  A
C661        C671   1.583       .  S
N662        C663   1.390       .  A
C663        N664   1.373       .  A
C663        N781   1.481       .  S
N664        C665   1.374       .  A
C665        N666   1.395       .  A
C665        N722   1.486       .  S
C667        N672   1.391       .  A
N668       C1533   1.392       .  A
C669       N1532   1.392   1_455  A
C669        N670   1.391       .  A
C671       N1536   1.391   1_455  A
N672       C1535   1.391       .  A
N673        C677   1.387       .  A
N673        C674   1.384       .  A
N673        C765   1.488       .  S
C674        C755   1.523       .  S
C675        C676   1.358       .  A
C675        H678   1.084       .  S
C676        H679   1.084       .  S
C677        C704   1.527       .  S
N680        C684   1.383       .  A
N680        C681   1.383       .  A
C681        C718   1.523       .  S
C682        C683   1.359       .  A
C682        H685   1.083   1_554  S
C683        H686   1.084   1_554  S
C684        C706   1.522       .  S
N687        C691   1.387       .  A
N687        C688   1.388       .  A
N687        C779   1.490       .  S
C688        C707   1.530       .  S
C689        C690   1.359       .  A
C689        H692   1.084       .  S
C690        H693   1.084       .  S
C691        C719   1.529       .  S
O694       Cu702   2.084       .  S
O694        C704   1.283       .  A
O695      Cu1566   2.059   1_554  S
O696      Cu1566   2.067   1_554  S
O697       Cu702   2.093       .  S
O697        C707   1.284       .  A
O698       Cu703   2.055       .  S
O699      Cu1567   2.076       .  S
O699        C706   1.282   1_655  A
O700      Cu1567   2.091       .  S
O700        C705   1.284   1_655  A
O701       Cu703   2.069       .  S
Cu702      O1559   2.059   1_556  S
Cu702      O1560   2.067   1_556  S
Cu703      O1563   2.076       .  S
Cu703      O1564   2.091       .  S
C705        C723   1.525       .  S
O708       Cu716   2.071   1_554  S
O709       Cu716   2.093       .  S
O709        C719   1.284       .  A
O710       Cu716   2.083       .  S
O710        C720   1.282       .  A
O711       Cu716   2.061   1_554  S
O712       Cu717   2.086       .  S
O712        C721   1.283       .  A
O713       Cu717   2.063       .  S
O714       Cu717   2.055       .  S
O715       Cu717   2.080       .  S
O715        C718   1.282       .  A
C720        C730   1.527       .  S
C721        C737   1.524       .  S
N722        C726   1.387       .  A
N722        C723   1.385       .  A
C724        C725   1.358       .  A
C724        H727   1.083   1_554  S
C725        H728   1.084   1_554  S
C726        C756   1.528       .  S
N729        C733   1.388       .  A
N729        C730   1.386       .  A
N729        C759   1.491       .  S
C731        C732   1.358       .  A
C731        H734   1.084       .  S
C732        H735   1.083       .  S
C733        C754   1.530       .  S
N736        C740   1.383       .  A
N736        C737   1.384       .  A
C738        C739   1.359       .  A
C738        H741   1.083   1_554  S
C739        H742   1.084   1_554  S
C740        C753   1.522       .  S
O743       Cu751   2.068   1_554  S
O744        C754   1.283       .  A
O745        C755   1.283       .  A
O746       Cu751   2.065   1_554  S
O747       Cu752   2.090   1_565  S
O747        C756   1.284       .  A
O750       Cu752   2.077   1_565  S
O750        C753   1.282       .  A
C757        N758   1.387       .  A
C757        N762   1.382       .  A
C757        C771   1.585       .  S
N758        C759   1.397       .  A
C759        N760   1.376       .  A
N760        C761   1.374       .  A
C761        N762   1.390       .  A
C761        N795   1.483       .  S
C763        N764   1.386       .  A
C763        N768   1.382       .  A
C763        C773   1.585       .  S
N764        C765   1.396       .  A
C765        N766   1.374       .  A
N766        C767   1.373       .  A
C767        N768   1.390       .  A
C767        N788   1.481       .  S
C769       N1634   1.392       .  A
C769        N774   1.392       .  A
C769        C775   1.586       .  S
N770       C1633   1.391   1_455  A
C771        N772   1.392       .  A
N772       C1637   1.392   1_455  A
C773       N1636   1.392       .  A
C775        N776   1.382       .  A
C775        N780   1.386       .  A
N776        C777   1.390       .  A
C777        N778   1.374       .  A
C777        N830   1.483       .  S
N778        C779   1.376       .  A
C779        N780   1.397       .  A
N781        C785   1.364       .  A
N781        C782   1.360       .  A
C782        C820   1.452       .  S
C782        C783   1.380       .  A
C783        C784   1.354       .  A
C783        H786   1.083       .  S
C784        C785   1.380       .  A
C784        H787   1.083       .  S
C785        C847   1.454       .  S
N788        C792   1.362       .  A
N788        C789   1.367       .  A
C789        C819   1.454       .  S
C789        C790   1.380       .  A
C790        C791   1.355       .  A
C790        H793   1.083       .  S
C791        C792   1.379       .  A
C791        H794   1.084       .  S
C792        C848   1.451       .  S
N795        C799   1.361       .  A
N795        C796   1.365       .  A
C796        C863   1.453       .  S
C796        C797   1.379       .  A
C797        C798   1.355       .  A
C797        H800   1.084       .  S
C798        C799   1.380       .  A
C798        H801   1.083       .  S
C799        C822   1.452       .  S
N802        C806   1.365       .  A
N802        C803   1.362       .  A
C803        C864   1.450       .  S
C803        C804   1.380       .  A
C804        C805   1.354       .  A
C804        H807   1.083       .  S
C805        C806   1.379       .  A
C805        H808   1.083       .  S
C806        C821   1.450       .  S
O809        C819   1.275       .  A
O810       Cu817   1.970   1_565  S
O810        C820   1.275       .  A
O811       Cu817   1.976   1_565  S
O811        C821   1.276       .  A
O812        C822   1.277       .  A
O813        C822   1.275       .  A
O814       Cu818   1.984       .  S
O814        C821   1.275       .  A
O815       Cu818   1.992       .  S
O815        C820   1.277       .  A
O816        C819   1.278       .  A
Cu817      Cu818   2.382   1_545  S
N823        C827   1.363       .  A
N823        C824   1.364       .  A
C824        C861   1.452       .  S
C824        C825   1.380       .  A
C825        C826   1.356       .  A
C825        H828   1.084       .  S
C826        C827   1.379       .  A
C826        H829   1.084       .  S
C827        C850   1.451       .  S
N830        C834   1.362       .  A
N830        C831   1.363       .  A
C831        C849   1.452       .  S
C831        C832   1.379       .  A
C832        C833   1.355       .  A
C832        H835   1.083       .  S
C833        C834   1.380       .  A
C833        H836   1.083       .  S
C834        C862   1.454       .  S
O837      Cu1709   1.993       .  S
O837        C847   1.277       .  A
O838       Cu845   1.979       .  S
O838        C848   1.276       .  A
O839       Cu845   1.963       .  S
O839        C849   1.275       .  A
O840      Cu1709   1.981       .  S
O840        C850   1.275       .  A
O841      Cu1710   1.985       .  S
O841        C850   1.276   1_655  A
O842       Cu846   1.995       .  S
O842        C849   1.277       .  A
O843       Cu846   1.986       .  S
O843        C848   1.276       .  A
O844      Cu1710   1.969       .  S
O844        C847   1.276   1_655  A
Cu845      O1701   1.993       .  S
Cu845      O1704   1.981       .  S
Cu845      Cu846   2.382       .  S
Cu846      O1705   1.985       .  S
Cu846      O1708   1.969       .  S
O851       Cu859   1.995       .  S
O851        C861   1.277       .  A
O852       Cu859   1.981       .  S
O852        C862   1.277       .  A
O853       Cu859   1.976       .  S
O853        C863   1.277       .  A
O854       Cu859   1.987       .  S
O854        C864   1.276       .  A
O855       Cu860   1.974       .  S
O855        C864   1.275       .  A
O856       Cu860   1.988       .  S
O856        C863   1.276       .  A
O857       Cu860   1.982       .  S
O857        C862   1.276       .  A
O858       Cu860   1.970       .  S
O858        C861   1.276       .  A
Cu859      Cu860   2.382       .  S
C865        N866   1.388       .  A
C865        N870   1.380       .  A
C865        C883   1.584       .  S
N866        C867   1.398       .  A
C867        N868   1.371       .  A
C867        N952   1.487       .  S
N868        C869   1.370       .  A
C869        N870   1.388       .  A
C869       N1018   1.476       .  S
C871        N872   1.389       .  A
C871        N876   1.380       .  A
C871        C885   1.583       .  S
N872        C873   1.398       .  A
C873        N874   1.371       .  A
C873        N896   1.489       .  S
N874        C875   1.370       .  A
C875        N876   1.387       .  A
C875       N1039   1.475       .  S
C877        N878   1.385       .  A
C877        N882   1.382       .  A
C877        C887   1.584       .  S
N878        C879   1.393       .  A
C879        N880   1.372       .  A
C879        N997   1.482       .  S
N880        C881   1.373       .  A
C881        N882   1.393       .  A
C881        N938   1.483       .  S
C883       N1316   1.391       .  A
C883        N888   1.392       .  A
N884       C1315   1.391   1_545  A
C885        N886   1.391       .  A
N886       C1319   1.391   1_545  A
C887       N1318   1.391       .  A
N889        C893   1.384       .  A
N889        C890   1.383       .  A
N889        C981   1.489       .  S
C890        C971   1.526       .  S
C890       C1107   1.382       .  A
C891       C1106   1.381       .  A
C891        C892   1.358       .  A
C891        H894   1.084   1_556  S
C892       C1109   1.383       .  A
C892        H895   1.084   1_556  S
C893        C920   1.529       .  S
C893       C1108   1.382       .  A
N896        C900   1.386       .  A
N896        C897   1.386       .  A
C897        C934   1.530       .  S
C897       C1114   1.381       .  A
C898       C1113   1.382       .  A
C898        C899   1.357       .  A
C898        H901   1.084       .  S
C899       C1116   1.383       .  A
C899        H902   1.084       .  S
C900        C922   1.528       .  S
C900       C1115   1.382       .  A
N903        C907   1.384       .  A
N903        C904   1.382       .  A
N903        C995   1.480       .  S
C904        C923   1.521       .  S
C904       C1121   1.381       .  A
C905       C1120   1.382       .  A
C905        C906   1.358       .  A
C905        H908   1.084   1_556  S
C906       C1123   1.383       .  A
C906        H909   1.084   1_556  S
C907        C935   1.522       .  S
C907       C1122   1.383       .  A
O910       Cu918   2.084   1_655  S
O910        C920   1.282       .  A
O911       C1137   1.288       .  A
O912       C1138   1.289       .  A
O913       Cu918   2.084   1_655  S
O913        C923   1.283       .  A
O914       Cu919   2.068       .  S
O914       C1139   1.289   1_554  A
O915        C922   1.283       .  A
O916        C921   1.283       .  A
O917       Cu919   2.066       .  S
O917       C1136   1.289   1_554  A
Cu918     Cu1135   2.353   1_455  S
Cu919     Cu1134   2.352   1_654  S
C920       O1133   1.290       .  A
C921        C939   1.522       .  S
C921       O1127   1.287       .  A
C922       O1128   1.289       .  A
C923       O1130   1.287       .  A
O924       Cu932   2.064       .  S
O924       C1150   1.289       .  A
O925       Cu932   2.086       .  S
O925        C935   1.283       .  A
O926       Cu932   2.080       .  S
O926        C936   1.282       .  A
O927       Cu932   2.060       .  S
O927       C1153   1.288       .  A
O928       Cu933   2.093       .  S
O928        C937   1.284       .  A
O929       Cu933   2.069       .  S
O929       C1152   1.289   1_554  A
O930       Cu933   2.066       .  S
O930       C1151   1.288   1_554  A
O931       Cu933   2.089       .  S
O931        C934   1.283       .  A
Cu932     Cu1149   2.353       .  S
Cu933     Cu1148   2.351   1_554  S
C934       O1140   1.290       .  A
C935       O1146   1.287       .  A
C936        C946   1.525       .  S
C936       O1145   1.289       .  A
C937        C953   1.527       .  S
C937       O1143   1.288       .  A
N938        C942   1.386       .  A
N938        C939   1.384       .  A
C939       C1156   1.382       .  A
C940       C1155   1.382       .  A
C940        C941   1.358       .  A
C940        H943   1.083       .  S
C941       C1158   1.383       .  A
C941        H944   1.084       .  S
C942        C972   1.525       .  S
C942       C1157   1.382       .  A
N945        C949   1.381       .  A
N945        C946   1.385       .  A
N945        C975   1.483       .  S
C946       C1163   1.383       .  A
C947       C1162   1.382       .  A
C947        C948   1.358       .  A
C947        H950   1.084   1_556  S
C948       C1165   1.382       .  A
C948        H951   1.084   1_556  S
C949        C970   1.520       .  S
C949       C1164   1.381       .  A
N952        C956   1.387       .  A
N952        C953   1.385       .  A
C953       C1170   1.381       .  A
C954       C1169   1.382       .  A
C954        C955   1.357       .  A
C954        H957   1.084       .  S
C955       C1172   1.382       .  A
C955        H958   1.084       .  S
C956        C969   1.531       .  S
C956       C1171   1.383       .  A
O959       Cu967   2.059       .  S
O959       C1185   1.288       .  A
O960      Cu1399   2.086   1_545  S
O960        C970   1.283       .  A
O961      Cu1399   2.083   1_545  S
O961        C971   1.282       .  A
O962       Cu967   2.061       .  S
O962       C1188   1.288       .  A
O963       Cu968   2.085       .  S
O963        C972   1.283       .  A
O964      Cu1400   2.060       .  S
O964       C1187   1.288   1_554  A
O965      Cu1400   2.073       .  S
O965       C1186   1.290   1_554  A
O966       Cu968   2.093       .  S
O966        C969   1.284       .  A
Cu967      O1392   2.086       .  S
Cu967      O1393   2.083       .  S
Cu967     Cu1184   2.353       .  S
Cu968      O1396   2.060       .  S
Cu968      O1397   2.073       .  S
Cu968     Cu1183   2.351   1_554  S
C969       O1175   1.289       .  A
C970       O1181   1.286       .  A
C971       O1180   1.289       .  A
C972       O1178   1.288       .  A
C973        N974   1.385       .  A
C973        N978   1.382       .  A
C973        C987   1.583       .  S
N974        C975   1.395       .  A
C975        N976   1.370       .  A
N976        C977   1.369       .  A
C977        N978   1.390       .  A
C977       N1011   1.477       .  S
C979        N980   1.391       .  A
C979        N984   1.378       .  A
C979        C989   1.583       .  S
N980        C981   1.400       .  A
C981        N982   1.370       .  A
N982        C983   1.369       .  A
C983        N984   1.385       .  A
C983       N1004   1.472       .  S
C985        N990   1.391       .  A
C985        C991   1.584       .  S
N986       C1419   1.391       .  A
C987       N1418   1.391   1_545  A
C987        N988   1.390       .  A
C989       N1422   1.391   1_545  A
N990       C1421   1.391       .  A
C991        N992   1.385       .  A
C991        N996   1.382       .  A
N992        C993   1.393       .  A
C993        N994   1.370       .  A
C993       N1046   1.480       .  S
N994        C995   1.370       .  A
C995        N996   1.393       .  A
N997       C1001   1.366       .  A
N997        C998   1.363       .  A
C998       C1036   1.455       .  S
C998        C999   1.380       .  A
C999       C1000   1.358       .  A
C999       H1002   1.083       .  S
C1000      C1001   1.380       .  A
C1000      H1003   1.083       .  S
C1001      C1063   1.457       .  S
N1004      C1008   1.360       .  A
N1004      C1005   1.363       .  A
C1005      C1035   1.456       .  S
C1005      C1006   1.380       .  A
C1006      C1007   1.361       .  A
C1006      H1009   1.084       .  S
C1007      C1008   1.380       .  A
C1007      H1010   1.083       .  S
C1008      C1064   1.455       .  S
N1011      C1015   1.363       .  A
N1011      C1012   1.363       .  A
C1012      C1079   1.455       .  S
C1012      C1013   1.379       .  A
C1013      C1014   1.358       .  A
C1013      H1016   1.083       .  S
C1014      C1015   1.381       .  A
C1014      H1017   1.083       .  S
C1015      C1038   1.456       .  S
N1018      C1022   1.364       .  A
N1018      C1019   1.364       .  A
C1019      C1080   1.456       .  S
C1019      C1020   1.380       .  A
C1020      C1021   1.359       .  A
C1020      H1023   1.083       .  S
C1021      C1022   1.379       .  A
C1021      H1024   1.083       .  S
C1022      C1037   1.455       .  S
O1025     Cu1465   1.989       .  S
O1025      C1035   1.276       .  A
O1026     Cu1033   1.976       .  S
O1026      C1036   1.275       .  A
O1027     Cu1033   1.991       .  S
O1027      C1037   1.277       .  A
O1028     Cu1465   2.001       .  S
O1028      C1038   1.278       .  A
O1029     Cu1466   1.977   1_545  S
O1029      C1038   1.275       .  A
O1030     Cu1034   1.989       .  S
O1030      C1037   1.276       .  A
O1031     Cu1034   2.000       .  S
O1031      C1036   1.278       .  A
O1032     Cu1466   1.992   1_545  S
O1032      C1035   1.277       .  A
Cu1033     O1457   1.988       .  S
Cu1033     O1460   2.001       .  S
Cu1033    Cu1034   2.381       .  S
Cu1034     O1461   1.977       .  S
Cu1034     O1464   1.992       .  S
N1039      C1043   1.363       .  A
N1039      C1040   1.361       .  A
C1040      C1077   1.455       .  S
C1040      C1041   1.380       .  A
C1041      C1042   1.360       .  A
C1041      H1044   1.082       .  S
C1042      C1043   1.380       .  A
C1042      H1045   1.084       .  S
C1043      C1066   1.455       .  S
N1046      C1050   1.366       .  A
N1046      C1047   1.364       .  A
C1047      C1065   1.454       .  S
C1047      C1048   1.380       .  A
C1048      C1049   1.357       .  A
C1048      H1051   1.083       .  S
C1049      C1050   1.379       .  A
C1049      H1052   1.084       .  S
C1050      C1078   1.454       .  S
O1053      C1063   1.277       .  A
O1054     Cu1061   1.984   1_655  S
O1054      C1064   1.275       .  A
O1055     Cu1061   1.975   1_655  S
O1055      C1065   1.275       .  A
O1056      C1066   1.276       .  A
O1057      C1066   1.276       .  A
O1058     Cu1062   1.998       .  S
O1058      C1065   1.277       .  A
O1059     Cu1062   1.995       .  S
O1059      C1064   1.277       .  A
O1060      C1063   1.277       .  A
Cu1061    Cu1062   2.381   1_455  S
O1067     Cu1075   2.003       .  S
O1067      C1077   1.278       .  A
O1068     Cu1075   1.990       .  S
O1068      C1078   1.277       .  A
O1069     Cu1075   1.981       .  S
O1069      C1079   1.275       .  A
O1070     Cu1075   1.995       .  S
O1070      C1080   1.276       .  A
O1071     Cu1076   1.986       .  S
O1071      C1080   1.276       .  A
O1072     Cu1076   1.997       .  S
O1072      C1079   1.278       .  A
O1073     Cu1076   1.987       .  S
O1073      C1078   1.276       .  A
O1074     Cu1076   1.975       .  S
O1074      C1077   1.274       .  A
Cu1075    Cu1076   2.381       .  S
C1081      N1082   1.385       .  A
C1081      N1086   1.383       .  A
C1081      C1099   1.585       .  S
N1082      C1083   1.395       .  A
C1083      N1084   1.373       .  A
C1083      N1168   1.486       .  S
N1084      C1085   1.372       .  A
C1085      N1086   1.391       .  A
C1085      N1234   1.481       .  S
C1087      N1088   1.387       .  A
C1087      N1092   1.381       .  A
C1087      C1101   1.585       .  S
N1088      C1089   1.397       .  A
C1089      N1090   1.373       .  A
C1089      N1112   1.487       .  S
N1090      C1091   1.371       .  A
C1091      N1092   1.389       .  A
C1091      N1255   1.479       .  S
C1093      N1094   1.382       .  A
C1093      N1098   1.385       .  A
C1093      C1103   1.583       .  S
N1094      C1095   1.390       .  A
C1095      N1096   1.373       .  A
C1095      N1213   1.481       .  S
N1096      C1097   1.374       .  A
C1097      N1098   1.395       .  A
C1097      N1154   1.486       .  S
C1099      N1532   1.392       .  A
C1099      N1104   1.391       .  A
N1100      C1531   1.392   1_545  A
C1101      N1102   1.391       .  A
N1102      C1535   1.391   1_545  A
C1103      N1534   1.391       .  A
N1105      C1109   1.387       .  A
N1105      C1106   1.384       .  A
N1105      C1197   1.488       .  S
C1106      C1187   1.523       .  S
C1107      C1108   1.358       .  A
C1107      H1110   1.084       .  S
C1108      H1111   1.084       .  S
C1109      C1136   1.527       .  S
N1112      C1116   1.383       .  A
N1112      C1113   1.383       .  A
C1113      C1150   1.523       .  S
C1114      C1115   1.359       .  A
C1114      H1117   1.083   1_554  S
C1115      H1118   1.084   1_554  S
C1116      C1138   1.522       .  S
N1119      C1123   1.388       .  A
N1119      C1120   1.388       .  A
N1119      C1211   1.490       .  S
C1120      C1139   1.530       .  S
C1121      C1122   1.359       .  A
C1121      H1124   1.084       .  S
C1122      H1125   1.084       .  S
C1123      C1151   1.529       .  S
O1126     Cu1134   2.084   1_655  S
O1126      C1136   1.283       .  A
O1129     Cu1134   2.093   1_655  S
O1129      C1139   1.284       .  A
O1130     Cu1135   2.055       .  S
O1131      C1138   1.282       .  A
O1132      C1137   1.284       .  A
O1133     Cu1135   2.069       .  S
C1137      C1155   1.525       .  S
O1140     Cu1148   2.071   1_554  S
O1141     Cu1148   2.093       .  S
O1141      C1151   1.284       .  A
O1142     Cu1148   2.083       .  S
O1142      C1152   1.282       .  A
O1143     Cu1148   2.062   1_554  S
O1144     Cu1149   2.086       .  S
O1144      C1153   1.283       .  A
O1145     Cu1149   2.063       .  S
O1146     Cu1149   2.055       .  S
O1147     Cu1149   2.080       .  S
O1147      C1150   1.282       .  A
C1152      C1162   1.527       .  S
C1153      C1169   1.524       .  S
N1154      C1158   1.387       .  A
N1154      C1155   1.385       .  A
C1156      C1157   1.358       .  A
C1156      H1159   1.083   1_554  S
C1157      H1160   1.084   1_554  S
C1158      C1188   1.528       .  S
N1161      C1165   1.388       .  A
N1161      C1162   1.386       .  A
N1161      C1191   1.491       .  S
C1163      C1164   1.358       .  A
C1163      H1166   1.084       .  S
C1164      H1167   1.083       .  S
C1165      C1186   1.530       .  S
N1168      C1172   1.383       .  A
N1168      C1169   1.384       .  A
C1170      C1171   1.359       .  A
C1170      H1173   1.083   1_554  S
C1171      H1174   1.084   1_554  S
C1172      C1185   1.522       .  S
O1175     Cu1183   2.068   1_554  S
O1176     Cu1615   2.091   1_545  S
O1176      C1186   1.283       .  A
O1177     Cu1615   2.084   1_545  S
O1177      C1187   1.283       .  A
O1178     Cu1183   2.065   1_554  S
O1179     Cu1184   2.090       .  S
O1179      C1188   1.284       .  A
O1180     Cu1616   2.064       .  S
O1181     Cu1616   2.054       .  S
O1182     Cu1184   2.077       .  S
O1182      C1185   1.282       .  A
Cu1183     O1608   2.091       .  S
Cu1183     O1609   2.084       .  S
Cu1184     O1612   2.064       .  S
Cu1184     O1613   2.054       .  S
C1189      N1190   1.387       .  A
C1189      N1194   1.382       .  A
C1189      C1203   1.585       .  S
N1190      C1191   1.397       .  A
C1191      N1192   1.376       .  A
N1192      C1193   1.374       .  A
C1193      N1194   1.390       .  A
C1193      N1227   1.483       .  S
C1195      N1196   1.386       .  A
C1195      N1200   1.382       .  A
C1195      C1205   1.585       .  S
N1196      C1197   1.396       .  A
C1197      N1198   1.374       .  A
N1198      C1199   1.373       .  A
C1199      N1200   1.390       .  A
C1199      N1220   1.481       .  S
C1201      N1206   1.392       .  A
C1201      C1207   1.585       .  S
N1202      C1635   1.391       .  A
C1203      N1634   1.392   1_545  A
C1203      N1204   1.392       .  A
C1205      N1638   1.392   1_545  A
N1206      C1637   1.392       .  A
C1207      N1208   1.382       .  A
C1207      N1212   1.386       .  A
N1208      C1209   1.390       .  A
C1209      N1210   1.374       .  A
C1209      N1262   1.483       .  S
N1210      C1211   1.376       .  A
C1211      N1212   1.396       .  A
N1213      C1217   1.364       .  A
N1213      C1214   1.360       .  A
C1214      C1252   1.452       .  S
C1214      C1215   1.380       .  A
C1215      C1216   1.355       .  A
C1215      H1218   1.083       .  S
C1216      C1217   1.380       .  A
C1216      H1219   1.083       .  S
C1217      C1279   1.454       .  S
N1220      C1224   1.362       .  A
N1220      C1221   1.367       .  A
C1221      C1251   1.453       .  S
C1221      C1222   1.380       .  A
C1222      C1223   1.355       .  A
C1222      H1225   1.083       .  S
C1223      C1224   1.379       .  A
C1223      H1226   1.084       .  S
C1224      C1280   1.450       .  S
N1227      C1231   1.360       .  A
N1227      C1228   1.365       .  A
C1228      C1295   1.453       .  S
C1228      C1229   1.379       .  A
C1229      C1230   1.355       .  A
C1229      H1232   1.084       .  S
C1230      C1231   1.381       .  A
C1230      H1233   1.083       .  S
C1231      C1254   1.452       .  S
N1234      C1238   1.365       .  A
N1234      C1235   1.362       .  A
C1235      C1296   1.450       .  S
C1235      C1236   1.380       .  A
C1236      C1237   1.354       .  A
C1236      H1239   1.083       .  S
C1237      C1238   1.378       .  A
C1237      H1240   1.083       .  S
C1238      C1253   1.450       .  S
O1241     Cu1681   1.988       .  S
O1241      C1251   1.275       .  A
O1242     Cu1249   1.970       .  S
O1242      C1252   1.275       .  A
O1243     Cu1249   1.976       .  S
O1243      C1253   1.276       .  A
O1244     Cu1681   1.988       .  S
O1244      C1254   1.277       .  A
O1245     Cu1682   1.971   1_545  S
O1245      C1254   1.275       .  A
O1246     Cu1250   1.984       .  S
O1246      C1253   1.275       .  A
O1247     Cu1250   1.992       .  S
O1247      C1252   1.278       .  A
O1248     Cu1682   1.981   1_545  S
O1248      C1251   1.278       .  A
Cu1249     O1673   1.988       .  S
Cu1249     O1676   1.988       .  S
Cu1249    Cu1250   2.382       .  S
Cu1250     O1677   1.971       .  S
Cu1250     O1680   1.981       .  S
N1255      C1259   1.363       .  A
N1255      C1256   1.364       .  A
C1256      C1293   1.452       .  S
C1256      C1257   1.380       .  A
C1257      C1258   1.356       .  A
C1257      H1260   1.084       .  S
C1258      C1259   1.379       .  A
C1258      H1261   1.084       .  S
C1259      C1282   1.451       .  S
N1262      C1266   1.363       .  A
N1262      C1263   1.363       .  A
C1263      C1281   1.452       .  S
C1263      C1264   1.379       .  A
C1264      C1265   1.355       .  A
C1264      H1267   1.083       .  S
C1265      C1266   1.380       .  A
C1265      H1268   1.083       .  S
C1266      C1294   1.454       .  S
O1269      C1279   1.277       .  A
O1270     Cu1277   1.980   1_655  S
O1270      C1280   1.276       .  A
O1271     Cu1277   1.963   1_655  S
O1271      C1281   1.275       .  A
O1272      C1282   1.275       .  A
O1273      C1282   1.277       .  A
O1274     Cu1278   1.995       .  S
O1274      C1281   1.277       .  A
O1275     Cu1278   1.985       .  S
O1275      C1280   1.276       .  A
O1276      C1279   1.276       .  A
Cu1277    Cu1278   2.382   1_455  S
O1283     Cu1291   1.995       .  S
O1283      C1293   1.277       .  A
O1284     Cu1291   1.981       .  S
O1284      C1294   1.277       .  A
O1285     Cu1291   1.976       .  S
O1285      C1295   1.277       .  A
O1286     Cu1291   1.987       .  S
O1286      C1296   1.276       .  A
O1287     Cu1292   1.974       .  S
O1287      C1296   1.275       .  A
O1288     Cu1292   1.988       .  S
O1288      C1295   1.276       .  A
O1289     Cu1292   1.982       .  S
O1289      C1294   1.276       .  A
O1290     Cu1292   1.970       .  S
O1290      C1293   1.276       .  A
Cu1291    Cu1292   2.382       .  S
C1297      N1298   1.388       .  A
C1297      N1302   1.380       .  A
C1297      C1315   1.584       .  S
N1298      C1299   1.398       .  A
C1299      N1300   1.371       .  A
C1299      N1384   1.487       .  S
N1300      C1301   1.370       .  A
C1301      N1302   1.388       .  A
C1301      N1450   1.476       .  S
C1303      N1304   1.389       .  A
C1303      N1308   1.380       .  A
C1303      C1317   1.584       .  S
N1304      C1305   1.398       .  A
C1305      N1306   1.371       .  A
C1305      N1328   1.489       .  S
N1306      C1307   1.370       .  A
C1307      N1308   1.387       .  A
C1307      N1471   1.475       .  S
C1309      N1310   1.385       .  A
C1309      N1314   1.382       .  A
C1309      C1319   1.584       .  S
N1310      C1311   1.393       .  A
C1311      N1312   1.372       .  A
C1311      N1429   1.482       .  S
N1312      C1313   1.373       .  A
C1313      N1314   1.393       .  A
C1313      N1370   1.483       .  S
C1315      N1320   1.392       .  A
C1317      N1318   1.391       .  A
N1321      C1325   1.384       .  A
N1321      C1322   1.383       .  A
N1321      C1413   1.489       .  S
C1322      C1403   1.526       .  S
C1322      C1539   1.382       .  A
C1323      C1538   1.381       .  A
C1323      C1324   1.358       .  A
C1323      H1326   1.084   1_556  S
C1324      C1541   1.383       .  A
C1324      H1327   1.084   1_556  S
C1325      C1352   1.529       .  S
C1325      C1540   1.382       .  A
N1328      C1332   1.386       .  A
N1328      C1329   1.386       .  A
C1329      C1366   1.530       .  S
C1329      C1546   1.381       .  A
C1330      C1545   1.382       .  A
C1330      C1331   1.357       .  A
C1330      H1333   1.084       .  S
C1331      C1548   1.383       .  A
C1331      H1334   1.084       .  S
C1332      C1354   1.528       .  S
C1332      C1547   1.382       .  A
N1335      C1339   1.384       .  A
N1335      C1336   1.382       .  A
N1335      C1427   1.480       .  S
C1336      C1355   1.521       .  S
C1336      C1553   1.381       .  A
C1337      C1552   1.382       .  A
C1337      C1338   1.358       .  A
C1337      H1340   1.084   1_556  S
C1338      C1555   1.382       .  A
C1338      H1341   1.084   1_556  S
C1339      C1367   1.522       .  S
C1339      C1554   1.383       .  A
O1342     Cu1350   2.084   1_655  S
O1342      C1352   1.282       .  A
O1343      C1569   1.288       .  A
O1344      C1570   1.289       .  A
O1345     Cu1350   2.084   1_655  S
O1345      C1355   1.283       .  A
O1346     Cu1351   2.068       .  S
O1346      C1571   1.289   1_554  A
O1347      C1354   1.283       .  A
O1348      C1353   1.283       .  A
O1349     Cu1351   2.066       .  S
O1349      C1568   1.289   1_554  A
Cu1350    Cu1567   2.353   1_455  S
Cu1351    Cu1566   2.352   1_654  S
C1352      O1565   1.290       .  A
C1353      C1371   1.522       .  S
C1353      O1559   1.287       .  A
C1354      O1560   1.289       .  A
C1355      O1562   1.287       .  A
O1356     Cu1364   2.064       .  S
O1356      C1582   1.289       .  A
O1357     Cu1364   2.086       .  S
O1357      C1367   1.283       .  A
O1358     Cu1364   2.080       .  S
O1358      C1368   1.282       .  A
O1359     Cu1364   2.060       .  S
O1359      C1585   1.288       .  A
O1360     Cu1365   2.093       .  S
O1360      C1369   1.284       .  A
O1361     Cu1365   2.069       .  S
O1361      C1584   1.290   1_554  A
O1362     Cu1365   2.065       .  S
O1362      C1583   1.288   1_554  A
O1363     Cu1365   2.089       .  S
O1363      C1366   1.283       .  A
Cu1364    Cu1581   2.353       .  S
Cu1365    Cu1580   2.351   1_554  S
C1366      O1572   1.290       .  A
C1367      O1578   1.287       .  A
C1368      C1378   1.525       .  S
C1368      O1577   1.289       .  A
C1369      C1385   1.527       .  S
C1369      O1575   1.288       .  A
N1370      C1374   1.386       .  A
N1370      C1371   1.384       .  A
C1371      C1588   1.382       .  A
C1372      C1587   1.382       .  A
C1372      C1373   1.358       .  A
C1372      H1375   1.083       .  S
C1373      C1590   1.383       .  A
C1373      H1376   1.084       .  S
C1374      C1404   1.526       .  S
C1374      C1589   1.382       .  A
N1377      C1381   1.381       .  A
N1377      C1378   1.385       .  A
N1377      C1407   1.483       .  S
C1378      C1595   1.383       .  A
C1379      C1594   1.382       .  A
C1379      C1380   1.358       .  A
C1379      H1382   1.084   1_556  S
C1380      C1597   1.382       .  A
C1380      H1383   1.084   1_556  S
C1381      C1402   1.520       .  S
C1381      C1596   1.381       .  A
N1384      C1388   1.387       .  A
N1384      C1385   1.385       .  A
C1385      C1602   1.382       .  A
C1386      C1601   1.382       .  A
C1386      C1387   1.358       .  A
C1386      H1389   1.084       .  S
C1387      C1604   1.382       .  A
C1387      H1390   1.084       .  S
C1388      C1401   1.531       .  S
C1388      C1603   1.383       .  A
O1391     Cu1399   2.059       .  S
O1391      C1617   1.288       .  A
O1392      C1402   1.283       .  A
O1393      C1403   1.282       .  A
O1394     Cu1399   2.061       .  S
O1394      C1620   1.288       .  A
O1395     Cu1400   2.085   1_565  S
O1395      C1404   1.283       .  A
O1396      C1619   1.288   1_554  A
O1397      C1618   1.290   1_554  A
O1398     Cu1400   2.093   1_565  S
O1398      C1401   1.284       .  A
Cu1399    Cu1616   2.353   1_565  S
Cu1400    Cu1615   2.351   1_544  S
C1401      O1607   1.289       .  A
C1402      O1613   1.286       .  A
C1403      O1612   1.289       .  A
C1404      O1610   1.289       .  A
C1405      N1406   1.385       .  A
C1405      N1410   1.382       .  A
C1405      C1419   1.583       .  S
N1406      C1407   1.395       .  A
C1407      N1408   1.370       .  A
N1408      C1409   1.369       .  A
C1409      N1410   1.390       .  A
C1409      N1443   1.477       .  S
C1411      N1412   1.391       .  A
C1411      N1416   1.378       .  A
C1411      C1421   1.584       .  S
N1412      C1413   1.400       .  A
C1413      N1414   1.370       .  A
N1414      C1415   1.369       .  A
C1415      N1416   1.385       .  A
C1415      N1436   1.472       .  S
C1417      N1422   1.391       .  A
C1417      C1423   1.584       .  S
C1419      N1420   1.390       .  A
C1423      N1424   1.385       .  A
C1423      N1428   1.382       .  A
N1424      C1425   1.393       .  A
C1425      N1426   1.370       .  A
C1425      N1478   1.480       .  S
N1426      C1427   1.370       .  A
C1427      N1428   1.393       .  A
N1429      C1433   1.366       .  A
N1429      C1430   1.363       .  A
C1430      C1468   1.455       .  S
C1430      C1431   1.380       .  A
C1431      C1432   1.358       .  A
C1431      H1434   1.083       .  S
C1432      C1433   1.380       .  A
C1432      H1435   1.083       .  S
C1433      C1495   1.457       .  S
N1436      C1440   1.360       .  A
N1436      C1437   1.363       .  A
C1437      C1467   1.455       .  S
C1437      C1438   1.380       .  A
C1438      C1439   1.361       .  A
C1438      H1441   1.084       .  S
C1439      C1440   1.380       .  A
C1439      H1442   1.083       .  S
C1440      C1496   1.455       .  S
N1443      C1447   1.363       .  A
N1443      C1444   1.363       .  A
C1444      C1511   1.455       .  S
C1444      C1445   1.379       .  A
C1445      C1446   1.358       .  A
C1445      H1448   1.083       .  S
C1446      C1447   1.381       .  A
C1446      H1449   1.083       .  S
C1447      C1470   1.456       .  S
N1450      C1454   1.364       .  A
N1450      C1451   1.364       .  A
C1451      C1512   1.457       .  S
C1451      C1452   1.380       .  A
C1452      C1453   1.359       .  A
C1452      H1455   1.083       .  S
C1453      C1454   1.379       .  A
C1453      H1456   1.083       .  S
C1454      C1469   1.455       .  S
O1457      C1467   1.276       .  A
O1458     Cu1465   1.976   1_565  S
O1458      C1468   1.275       .  A
O1459     Cu1465   1.991   1_565  S
O1459      C1469   1.277       .  A
O1460      C1470   1.278       .  A
O1461      C1470   1.275       .  A
O1462     Cu1466   1.990       .  S
O1462      C1469   1.276       .  A
O1463     Cu1466   2.000       .  S
O1463      C1468   1.278       .  A
O1464      C1467   1.277       .  A
Cu1465    Cu1466   2.381   1_545  S
N1471      C1475   1.363       .  A
N1471      C1472   1.361       .  A
C1472      C1509   1.455       .  S
C1472      C1473   1.380       .  A
C1473      C1474   1.360       .  A
C1473      H1476   1.082       .  S
C1474      C1475   1.380       .  A
C1474      H1477   1.084       .  S
C1475      C1498   1.455       .  S
N1478      C1482   1.366       .  A
N1478      C1479   1.364       .  A
C1479      C1497   1.454       .  S
C1479      C1480   1.380       .  A
C1480      C1481   1.357       .  A
C1480      H1483   1.083       .  S
C1481      C1482   1.379       .  A
C1481      H1484   1.084       .  S
C1482      C1510   1.454       .  S
O1485      C1495   1.277       .  A
O1486     Cu1493   1.984   1_655  S
O1486      C1496   1.275       .  A
O1487     Cu1493   1.975   1_655  S
O1487      C1497   1.275       .  A
O1488      C1498   1.276       .  A
O1489      C1498   1.276       .  A
O1490     Cu1494   1.998       .  S
O1490      C1497   1.277       .  A
O1491     Cu1494   1.995       .  S
O1491      C1496   1.277       .  A
O1492      C1495   1.277       .  A
Cu1493    Cu1494   2.381   1_455  S
O1499     Cu1507   2.003       .  S
O1499      C1509   1.278       .  A
O1500     Cu1507   1.990       .  S
O1500      C1510   1.277       .  A
O1501     Cu1507   1.981       .  S
O1501      C1511   1.275       .  A
O1502     Cu1507   1.995       .  S
O1502      C1512   1.276       .  A
O1503     Cu1508   1.986       .  S
O1503      C1512   1.276       .  A
O1504     Cu1508   1.997       .  S
O1504      C1511   1.278       .  A
O1505     Cu1508   1.987       .  S
O1505      C1510   1.275       .  A
O1506     Cu1508   1.975       .  S
O1506      C1509   1.274       .  A
Cu1507    Cu1508   2.381       .  S
C1513      N1514   1.385       .  A
C1513      N1518   1.383       .  A
C1513      C1531   1.585       .  S
N1514      C1515   1.395       .  A
C1515      N1516   1.373       .  A
C1515      N1600   1.486       .  S
N1516      C1517   1.372       .  A
C1517      N1518   1.391       .  A
C1517      N1666   1.481       .  S
C1519      N1520   1.387       .  A
C1519      N1524   1.381       .  A
C1519      C1533   1.585       .  S
N1520      C1521   1.397       .  A
C1521      N1522   1.373       .  A
C1521      N1544   1.487       .  S
N1522      C1523   1.371       .  A
C1523      N1524   1.389       .  A
C1523      N1687   1.479       .  S
C1525      N1526   1.382       .  A
C1525      N1530   1.385       .  A
C1525      C1535   1.583       .  S
N1526      C1527   1.390       .  A
C1527      N1528   1.373       .  A
C1527      N1645   1.481       .  S
N1528      C1529   1.374       .  A
C1529      N1530   1.395       .  A
C1529      N1586   1.486       .  S
C1531      N1536   1.391       .  A
C1533      N1534   1.391       .  A
N1537      C1541   1.387       .  A
N1537      C1538   1.384       .  A
N1537      C1629   1.488       .  S
C1538      C1619   1.523       .  S
C1539      C1540   1.358       .  A
C1539      H1542   1.084       .  S
C1540      H1543   1.084       .  S
C1541      C1568   1.527       .  S
N1544      C1548   1.383       .  A
N1544      C1545   1.383       .  A
C1545      C1582   1.523       .  S
C1546      C1547   1.359       .  A
C1546      H1549   1.083   1_554  S
C1547      H1550   1.084   1_554  S
C1548      C1570   1.522       .  S
N1551      C1555   1.387       .  A
N1551      C1552   1.388       .  A
N1551      C1643   1.490       .  S
C1552      C1571   1.530       .  S
C1553      C1554   1.359       .  A
C1553      H1556   1.084       .  S
C1554      H1557   1.084       .  S
C1555      C1583   1.529       .  S
O1558     Cu1566   2.085   1_655  S
O1558      C1568   1.283       .  A
O1561     Cu1566   2.093   1_655  S
O1561      C1571   1.284       .  A
O1562     Cu1567   2.055       .  S
O1563      C1570   1.282       .  A
O1564      C1569   1.284       .  A
O1565     Cu1567   2.069       .  S
C1569      C1587   1.525       .  S
O1572     Cu1580   2.071   1_554  S
O1573     Cu1580   2.093       .  S
O1573      C1583   1.284       .  A
O1574     Cu1580   2.083       .  S
O1574      C1584   1.282       .  A
O1575     Cu1580   2.061   1_554  S
O1576     Cu1581   2.086       .  S
O1576      C1585   1.283       .  A
O1577     Cu1581   2.063       .  S
O1578     Cu1581   2.055       .  S
O1579     Cu1581   2.080       .  S
O1579      C1582   1.282       .  A
C1584      C1594   1.527       .  S
C1585      C1601   1.524       .  S
N1586      C1590   1.387       .  A
N1586      C1587   1.385       .  A
C1588      C1589   1.358       .  A
C1588      H1591   1.083   1_554  S
C1589      H1592   1.084   1_554  S
C1590      C1620   1.528       .  S
N1593      C1597   1.388       .  A
N1593      C1594   1.386       .  A
N1593      C1623   1.491       .  S
C1595      C1596   1.358       .  A
C1595      H1598   1.084       .  S
C1596      H1599   1.083       .  S
C1597      C1618   1.530       .  S
N1600      C1604   1.383       .  A
N1600      C1601   1.384       .  A
C1602      C1603   1.359       .  A
C1602      H1605   1.083   1_554  S
C1603      H1606   1.084   1_554  S
C1604      C1617   1.522       .  S
O1607     Cu1615   2.068   1_554  S
O1608      C1618   1.283       .  A
O1609      C1619   1.283       .  A
O1610     Cu1615   2.066   1_554  S
O1611     Cu1616   2.090   1_565  S
O1611      C1620   1.284       .  A
O1614     Cu1616   2.077   1_565  S
O1614      C1617   1.282       .  A
C1621      N1622   1.387       .  A
C1621      N1626   1.382       .  A
C1621      C1635   1.585       .  S
N1622      C1623   1.397       .  A
C1623      N1624   1.376       .  A
N1624      C1625   1.374       .  A
C1625      N1626   1.390       .  A
C1625      N1659   1.483       .  S
C1627      N1628   1.386       .  A
C1627      N1632   1.382       .  A
C1627      C1637   1.585       .  S
N1628      C1629   1.396       .  A
C1629      N1630   1.374       .  A
N1630      C1631   1.373       .  A
C1631      N1632   1.390       .  A
C1631      N1652   1.481       .  S
C1633      N1638   1.392       .  A
C1633      C1639   1.585       .  S
C1635      N1636   1.392       .  A
C1639      N1640   1.382       .  A
C1639      N1644   1.386       .  A
N1640      C1641   1.390       .  A
C1641      N1642   1.374       .  A
C1641      N1694   1.483       .  S
N1642      C1643   1.376       .  A
C1643      N1644   1.397       .  A
N1645      C1649   1.364       .  A
N1645      C1646   1.360       .  A
C1646      C1684   1.452       .  S
C1646      C1647   1.380       .  A
C1647      C1648   1.354       .  A
C1647      H1650   1.083       .  S
C1648      C1649   1.380       .  A
C1648      H1651   1.084       .  S
C1649      C1711   1.454       .  S
N1652      C1656   1.362       .  A
N1652      C1653   1.367       .  A
C1653      C1683   1.454       .  S
C1653      C1654   1.380       .  A
C1654      C1655   1.355       .  A
C1654      H1657   1.083       .  S
C1655      C1656   1.379       .  A
C1655      H1658   1.084       .  S
C1656      C1712   1.451       .  S
N1659      C1663   1.361       .  A
N1659      C1660   1.365       .  A
C1660      C1727   1.453       .  S
C1660      C1661   1.379       .  A
C1661      C1662   1.355       .  A
C1661      H1664   1.084       .  S
C1662      C1663   1.380       .  A
C1662      H1665   1.083       .  S
C1663      C1686   1.451       .  S
N1666      C1670   1.365       .  A
N1666      C1667   1.362       .  A
C1667      C1728   1.450       .  S
C1667      C1668   1.380       .  A
C1668      C1669   1.354       .  A
C1668      H1671   1.083       .  S
C1669      C1670   1.379       .  A
C1669      H1672   1.083       .  S
C1670      C1685   1.450       .  S
O1673      C1683   1.275       .  A
O1674     Cu1681   1.970   1_565  S
O1674      C1684   1.275       .  A
O1675     Cu1681   1.976   1_565  S
O1675      C1685   1.276       .  A
O1676      C1686   1.277       .  A
O1677      C1686   1.275       .  A
O1678     Cu1682   1.984       .  S
O1678      C1685   1.275       .  A
O1679     Cu1682   1.992       .  S
O1679      C1684   1.277       .  A
O1680      C1683   1.278       .  A
Cu1681    Cu1682   2.382   1_545  S
N1687      C1691   1.363       .  A
N1687      C1688   1.364       .  A
C1688      C1725   1.452       .  S
C1688      C1689   1.380       .  A
C1689      C1690   1.356       .  A
C1689      H1692   1.084       .  S
C1690      C1691   1.379       .  A
C1690      H1693   1.084       .  S
C1691      C1714   1.451       .  S
N1694      C1698   1.362       .  A
N1694      C1695   1.363       .  A
C1695      C1713   1.452       .  S
C1695      C1696   1.379       .  A
C1696      C1697   1.355       .  A
C1696      H1699   1.083       .  S
C1697      C1698   1.380       .  A
C1697      H1700   1.083       .  S
C1698      C1726   1.454       .  S
O1701      C1711   1.277       .  A
O1702     Cu1709   1.979   1_655  S
O1702      C1712   1.276       .  A
O1703     Cu1709   1.963   1_655  S
O1703      C1713   1.275       .  A
O1704      C1714   1.275       .  A
O1705      C1714   1.276       .  A
O1706     Cu1710   1.995       .  S
O1706      C1713   1.277       .  A
O1707     Cu1710   1.985       .  S
O1707      C1712   1.276       .  A
O1708      C1711   1.276       .  A
Cu1709    Cu1710   2.382   1_455  S
O1715     Cu1723   1.995       .  S
O1715      C1725   1.277       .  A
O1716     Cu1723   1.981       .  S
O1716      C1726   1.277       .  A
O1717     Cu1723   1.976       .  S
O1717      C1727   1.277       .  A
O1718     Cu1723   1.987       .  S
O1718      C1728   1.276       .  A
O1719     Cu1724   1.974       .  S
O1719      C1728   1.275       .  A
O1720     Cu1724   1.988       .  S
O1720      C1727   1.276       .  A
O1721     Cu1724   1.982       .  S
O1721      C1726   1.276       .  A
O1722     Cu1724   1.970       .  S
O1722      C1725   1.276       .  A
Cu1723    Cu1724   2.382       .  S
