geometry optimzed in LAMMPS
_audit_creation_date              2020-12-01 
_audit_creation_method            'lammps2cif' 
_symmetry_space_group_name_H-M    'P1' 
_symmetry_Int_Tables_number       1 
_symmetry_cell_setting            triclinic 
loop_ 
_symmetry_equiv_pos_as_xyz 
  x,y,z 
_cell_length_a                    33.38183474 
_cell_length_b                    33.32943259867701 
_cell_length_c                    44.17489831019085 
_cell_angle_alpha                 90.05557978158525 
_cell_angle_beta                  90.21125140541936 
_cell_angle_gamma                 90.01984243563851 
loop_ 
_atom_site_label 
_atom_site_type_symbol 
_atom_site_fract_x 
_atom_site_fract_y 
_atom_site_fract_z 
_atom_site_charge 
N1          N  0.63280056  0.27932873  0.99373742    -0.27200
N2          N  0.59553527  0.29014440  0.99959680    -0.35100
C3          C  0.57247204  0.25723030  0.00148311     0.01100
C4          C  0.59609078  0.22362621  0.99672475     0.07200
C5          C  0.63426817  0.23901276  0.99166196    -0.05900
H6          H  0.54085849  0.25787477  0.00672051     0.07800
H7          H  0.66128471  0.22242196  0.98677172     0.09000
Cu8        Cu  0.57664906  0.34872470  0.00575812     0.44200
Cu9        Cu  0.68023769  0.32006893  0.99060835     0.42000
Cu10       Cu  0.65024178  0.42493219  0.50085743     0.43900
N11         N  0.56314819  0.40901617  0.01015806    -0.34600
N12         N  0.59060312  0.43740413  0.50826671    -0.28800
C13         C  0.57285802  0.47343987  0.51075840    -0.04900
C14         C  0.53216314  0.46732454  0.01425694     0.07300
C15         C  0.52703934  0.42614123  0.01383478     0.01100
H16         H  0.58832231  0.50189491  0.50924102     0.08700
H17         H  0.49909333  0.40982544  0.01525757     0.07800
N18         N  0.70855952  0.40608807  0.99530409    -0.36000
N19         N  0.72012850  0.36841803  0.49187332    -0.28200
C20         C  0.76046545  0.36756233  0.49062727    -0.03500
C21         C  0.77473499  0.40660158  0.49313015     0.05100
C22         C  0.74083818  0.43001947  0.99620013     0.03200
H23         H  0.77809124  0.34050650  0.98832645     0.08300
H24         H  0.73949524  0.46201758  0.50006947     0.07200
N25         N  0.90167315  0.78180173  0.25332791    -0.27200
N26         N  0.93979599  0.79230961  0.25481472    -0.35100
C27         C  0.96256822  0.75913432  0.25575420     0.01100
C28         C  0.93770922  0.72580216  0.25508294     0.07200
C29         C  0.89923653  0.74148254  0.25333949    -0.05900
H30         H  0.99492511  0.75962292  0.25624084     0.07800
H31         H  0.87142045  0.72486225  0.25245692     0.09000
Cu32       Cu  0.95992464  0.85100948  0.25585666     0.44200
Cu33       Cu  0.85494517  0.82302722  0.25181272     0.42000
Cu34       Cu  0.88467724  0.92732740  0.26150795     0.43900
N35         N  0.97291639  0.91162828  0.25762622    -0.34600
N36         N  0.94518474  0.93971560  0.25996688    -0.28800
C37         C  0.96282760  0.97594830  0.25941048    -0.04900
C38         C  0.00364190  0.97027376  0.25658149     0.07300
C39         C  0.00904667  0.92917780  0.25558961     0.01100
H40         H  0.94698787  0.00423275  0.26034170     0.08700
H41         H  0.03700800  0.91317491  0.25296009     0.07800
N42         N  0.82601296  0.90844978  0.25748861    -0.36000
N43         N  0.81492890  0.87080637  0.25324778    -0.28200
C44         C  0.77477100  0.86946436  0.25076502    -0.03500
C45         C  0.75980427  0.90818488  0.25350130     0.05100
C46         C  0.79339957  0.93196721  0.25794402     0.03200
H47         H  0.75781148  0.84222701  0.24709275     0.08300
H48         H  0.79449899  0.96394240  0.26184241     0.07200
N49         N  0.31227936  0.59649074  0.49699013    -0.27200
N50         N  0.32286118  0.55885898  0.50194035    -0.35100
C51         C  0.29004494  0.53555508  0.50139667     0.01100
C52         C  0.25686491  0.55944010  0.49557643     0.07200
C53         C  0.27231713  0.59800757  0.49303646    -0.05900
H54         H  0.29060968  0.50373772  0.50597513     0.07800
H55         H  0.25578278  0.62535477  0.48885928     0.09000
Cu56       Cu  0.38107556  0.53987983  0.50955096     0.44200
Cu57       Cu  0.35237238  0.64435064  0.49718700     0.42000
Cu58       Cu  0.45610244  0.61670664  0.00928026     0.43900
N59         N  0.44168321  0.52801247  0.51371729    -0.34600
N60         N  0.46933885  0.55636561  0.01330295    -0.28800
C61         C  0.50575861  0.53923311  0.01435861    -0.04900
C62         C  0.50070483  0.49808942  0.01545939     0.07300
C63         C  0.45972209  0.49199875  0.51511585     0.01100
H64         H  0.53376470  0.55552063  0.01344138     0.08700
H65         H  0.44414833  0.46353207  0.51475958     0.07800
N66         N  0.43668906  0.67525978  0.50447557    -0.36000
N67         N  0.39898264  0.68573459  0.99995842    -0.28200
C68         C  0.39697112  0.72597704  0.99765471    -0.03500
C69         C  0.43536435  0.74164015  0.00096435     0.05100
C70         C  0.45960658  0.70834669  0.50518976     0.03200
H71         H  0.36958195  0.74226058  0.49326284     0.08300
H72         H  0.49166579  0.70803569  0.00880733     0.07200
O73         O  0.56441218  0.93097657  0.25122169    -0.72900
O74         O  0.44999202  0.96881777  0.24930347    -0.73800
O75         O  0.50745385  0.94850858  0.20497991    -0.62500
O76         O  0.50689595  0.95081329  0.29573164    -0.70900
O77         O  0.52551478  0.01474946  0.29532361    -0.70400
O78         O  0.53025172  0.01107457  0.20443612    -0.61700
O79         O  0.47098822  0.03185792  0.24772412    -0.74200
O80         O  0.58475302  0.99425299  0.25180410    -0.73000
Cu81       Cu  0.50643832  0.94756954  0.25037543     1.04600
Cu82       Cu  0.52858662  0.01517172  0.24982178     1.04300
C83         C  0.59276633  0.95676317  0.25182964     0.93300
C84         C  0.44239274  0.00637085  0.24778072     0.92500
C85         C  0.51930086  0.97934673  0.19039274     0.84600
C86         C  0.51603448  0.98302177  0.30985529     0.90900
O87         O  0.54928324  0.97166641  0.04514434    -0.72900
O88         O  0.54673172  0.97206345  0.45445899    -0.73800
O89         O  0.56654360  0.02945910  0.49978893    -0.62500
O90         O  0.52901816  0.91460468  0.99965426    -0.70900
O91         O  0.46598093  0.93533445  0.99919007    -0.70400
O92         O  0.50347242  0.04979125  0.50189081    -0.61700
O93         O  0.48430321  0.99497124  0.45507416    -0.74200
O94         O  0.48533576  0.98989076  0.04602209    -0.73000
Cu95       Cu  0.55009557  0.97124669  0.49975159     1.04600
Cu96       Cu  0.48258419  0.99323715  0.00060097     1.04300
C97         C  0.51753649  0.98007022  0.05988372     0.93300
C98         C  0.51536885  0.98390921  0.44045129     0.92500
C99         C  0.54085822  0.05791348  0.00070615     0.84600
C100        C  0.49151153  0.90676275  0.99921674     0.90900
N101        N  0.13540977  0.18999781  0.24168513    -0.27200
N102        N  0.09759534  0.17894309  0.24452200    -0.35100
C103        C  0.07430946  0.21170135  0.24549876     0.01100
C104        C  0.09834048  0.24544019  0.24323443     0.07200
C105        C  0.13706471  0.23037904  0.24075705    -0.05900
H106        H  0.04213545  0.21083354  0.24821560     0.07800
H107        H  0.16449556  0.24720484  0.23810292     0.09000
Cu108      Cu  0.07810359  0.12027790  0.24741498     0.44200
Cu109      Cu  0.18276432  0.14922407  0.23988115     0.42000
Cu110      Cu  0.15321001  0.04417739  0.24508377     0.43900
N111        N  0.06511713  0.05982575  0.25003854    -0.34600
N112        N  0.09291756  0.03169180  0.24891497    -0.28800
C113        C  0.07538671  0.99553596  0.25110995    -0.04900
C114        C  0.03457149  0.00131188  0.25382070     0.07300
C115        C  0.02904209  0.04240436  0.25305376     0.01100
H116        H  0.09124793  0.96724046  0.25084866     0.08700
H117        H  0.00097307  0.05849412  0.25450087     0.07800
N118        N  0.21187238  0.06342364  0.24265910    -0.36000
N119        N  0.22302391  0.10135114  0.24054350    -0.28200
C120        C  0.26331850  0.10293184  0.23988287    -0.03500
C121        C  0.27830193  0.06406079  0.24192331     0.05100
C122        C  0.24453131  0.03998648  0.24353418     0.03200
H123        H  0.28010233  0.13050041  0.23784815     0.08300
H124        H  0.24355319  0.00770167  0.24584801     0.07200
O125        O  0.04406874  0.49211036  0.29554623    -0.72900
O126        O  0.04341738  0.49748786  0.20487885    -0.73800
O127        O  0.02376405  0.55134467  0.25232530    -0.62500
O128        O  0.06395823  0.43825822  0.24839380    -0.70900
O129        O  0.00139033  0.41608193  0.24941103    -0.70400
O130        O  0.96098002  0.52997613  0.24922220    -0.61700
O131        O  0.98177809  0.47243432  0.20399861    -0.74200
O132        O  0.98023093  0.47336018  0.29494435    -0.73000
Cu133      Cu  0.04593920  0.49557243  0.25029994     1.04600
Cu134      Cu  0.97885898  0.47215507  0.24939398     1.04300
C135        C  0.01206301  0.48253938  0.30953860     0.93300
C136        C  0.01277847  0.48518619  0.19013876     0.92500
C137        C  0.98622368  0.55873069  0.25126473     0.84600
C138        C  0.03905051  0.40915340  0.24828375     0.90900
O139        O  0.94698687  0.49820365  0.50052581    -0.72900
O140        O  0.06115442  0.53648704  0.49866193    -0.73800
O141        O  0.00214460  0.51717401  0.45436129    -0.62500
O142        O  0.00565276  0.51736080  0.04532993    -0.70900
O143        O  0.02504522  0.45369222  0.04499769    -0.70400
O144        O  0.02459462  0.45449947  0.45428929    -0.61700
O145        O  0.08184616  0.47336458  0.49919785    -0.74200
O146        O  0.96803222  0.43511559  0.99973018    -0.73000
Cu147      Cu  0.00328281  0.51955825  0.49980977     1.04600
Cu148      Cu  0.02564823  0.45203168  0.99959885     1.04300
C149        C  0.93945997  0.46058629  0.50001295     0.93300
C150        C  0.08966451  0.51090019  0.49828914     0.92500
C151        C  0.01290775  0.48569545  0.44000198     0.84600
C152        C  0.01520418  0.48532198  0.05951789     0.90900
C153        C  0.01331959  0.48544272  0.15680542    -0.05400
C154        C  0.00098209  0.45125322  0.14074284    -0.32800
C155        C  0.00202993  0.45058971  0.10905076     0.36400
C156        C  0.01464567  0.48485756  0.09295614    -0.05700
C157        C  0.02624724  0.51927314  0.10910066    -0.32700
C158        C  0.02632357  0.51947648  0.14079862     0.36300
H159        H  0.99104874  0.42479594  0.15283229     0.16700
O160        O  0.99014213  0.41651201  0.09406049    -0.60200
H161        H  0.03585529  0.54591660  0.09710746     0.16700
O162        O  0.03760526  0.55362301  0.15594519    -0.60300
H163        H  0.06724312  0.55232455  0.15716448     0.43700
H164        H  0.96126768  0.42050054  0.08964844     0.43700
C165        C  0.01189218  0.48256254  0.34285312    -0.05400
C166        C  0.98087893  0.50193211  0.35844981    -0.32800
C167        C  0.98125216  0.50397935  0.39013444     0.36400
C168        C  0.01218583  0.48516379  0.40662405    -0.05700
C169        C  0.04264638  0.46498345  0.39096135    -0.32700
C170        C  0.04304039  0.46422502  0.35930380     0.36300
H171        H  0.95676326  0.51622075  0.34600695     0.16700
O172        O  0.95047052  0.52301756  0.40478207    -0.60200
H173        H  0.06659418  0.45027548  0.40330859     0.16700
O174        O  0.07316039  0.44417741  0.34463685    -0.60300
H175        H  0.09560397  0.46360665  0.34344951     0.43700
H176        H  0.95779046  0.55186093  0.40473814     0.43700
C177        C  0.08440121  0.28786652  0.24368341    -0.05400
C178        C  0.04466313  0.29649297  0.23523149    -0.32800
C179        C  0.02946346  0.33554896  0.23677056     0.36400
C180        C  0.05414353  0.36731824  0.24664199    -0.05700
C181        C  0.09408538  0.35893762  0.25461879    -0.32700
C182        C  0.10927720  0.31974583  0.25321626     0.36300
H183        H  0.02505157  0.27289330  0.22716343     0.16700
O184        O  0.99079229  0.34241420  0.22753884    -0.60200
H185        H  0.11361526  0.38279287  0.26243754     0.16700
O186        O  0.14783091  0.31286412  0.26265434    -0.59100
H187        H  0.16501352  0.32232453  0.24583158     0.43700
H188        H  0.97394747  0.33554091  0.24523792     0.43700
C189        C  0.40038571  0.02076927  0.24604197    -0.05400
C190        C  0.39161339  0.06074451  0.25364915    -0.32800
C191        C  0.35234870  0.07549449  0.25221525     0.36400
C192        C  0.32072037  0.05020849  0.24282609    -0.05700
C193        C  0.32967706  0.01030287  0.23490226    -0.32700
C194        C  0.36885208  0.99547261  0.23665082     0.36300
H195        H  0.41523888  0.08068144  0.26126453     0.16700
O196        O  0.34518778  0.11405553  0.26154363    -0.60200
H197        H  0.30628133  0.99027552  0.22710524     0.16700
O198        O  0.37603752  0.95654368  0.22815406    -0.60300
H199        H  0.36950977  0.94015032  0.24620494     0.43700
H200        H  0.35477046  0.13134729  0.24479917     0.43700
C201        C  0.51977831  0.97846933  0.15702386    -0.05400
C202        C  0.48781393  0.96064102  0.14124444    -0.32800
C203        C  0.48666515  0.96106268  0.10956044     0.36400
C204        C  0.51824972  0.97866972  0.09321468    -0.05700
C205        C  0.55089522  0.99517370  0.10896615    -0.32700
C206        C  0.55148320  0.99581295  0.14065662     0.36300
H207        H  0.46322024  0.94715002  0.15353552     0.16700
O208        O  0.45469090  0.94399025  0.09479888    -0.60200
H209        H  0.57556693  0.00849408  0.09665988     0.16700
O210        O  0.58374948  0.01229764  0.15542977    -0.60300
H211        H  0.57854906  0.04158766  0.15572016     0.43700
H212        H  0.46314410  0.91610511  0.09026114     0.43700
C213        C  0.51514642  0.98422628  0.40708359    -0.05400
C214        C  0.53214664  0.95188556  0.39138340    -0.32800
C215        C  0.53202263  0.95096616  0.35972458     0.36400
C216        C  0.51592451  0.98335451  0.34324594    -0.05700
C217        C  0.49969194  0.01617428  0.35892649    -0.32700
C218        C  0.49879320  0.01655618  0.39065332     0.36300
H219        H  0.54506517  0.92692635  0.40372576     0.16700
O220        O  0.54922487  0.91904672  0.34507980    -0.60200
H221        H  0.48719144  0.04129632  0.34653590     0.16700
O222        O  0.48245728  0.04888283  0.40535842    -0.60300
H223        H  0.50531451  0.06708924  0.40961105     0.43700
H224        H  0.52818354  0.89805050  0.34444816     0.43700
C225        C  0.44873189  0.78424105  0.99981923    -0.05400
C226        C  0.48856768  0.79291052  0.49188102    -0.32800
C227        C  0.50293711  0.83237268  0.49157753     0.36400
C228        C  0.47728851  0.86448889  0.99902364    -0.05700
C229        C  0.43732907  0.85592732  0.00664857    -0.32700
C230        C  0.42298416  0.81637861  0.00709036     0.36300
H231        H  0.50888962  0.76901770  0.48563600     0.16700
O232        O  0.54185223  0.83913232  0.48312094    -0.60200
H233        H  0.41708336  0.87996191  0.01280716     0.16700
O234        O  0.38434856  0.80954094  0.01615972    -0.60300
H235        H  0.36735842  0.81746957  0.99868928     0.43700
H236        H  0.55803199  0.83445617  0.50166172     0.43700
C237        C  0.13206016  0.52433377  0.49648247    -0.05400
C238        C  0.16196783  0.49614650  0.48963087    -0.32800
C239        C  0.20241497  0.50715110  0.48849446     0.36400
C240        C  0.21397542  0.54711378  0.49460657    -0.05700
C241        C  0.18391638  0.57559902  0.00051601    -0.32700
C242        C  0.14338466  0.56466555  0.00120974     0.36300
H243        H  0.15407053  0.46522769  0.48491230     0.16700
O244        O  0.23006019  0.47884932  0.48010979    -0.60200
H245        H  0.19171783  0.60649753  0.00525762     0.16700
O246        O  0.11535831  0.59353679  0.00750552    -0.60300
H247        H  0.10908029  0.60616059  0.98771280     0.43700
H248        H  0.23193355  0.46004651  0.49745742     0.43700
C249        C  0.71710662  0.92089984  0.25270614    -0.05400
C250        C  0.68694953  0.89301174  0.25976580    -0.32800
C251        C  0.64643161  0.90394798  0.25941978     0.36400
C252        C  0.63524099  0.94361931  0.25220085    -0.05700
C253        C  0.66534072  0.97140283  0.24494338    -0.32700
C254        C  0.70579852  0.96045081  0.24507435     0.36300
H255        H  0.69467796  0.86257908  0.26601629     0.16700
O256        O  0.61824014  0.87585428  0.26712942    -0.60200
H257        H  0.65756378  0.00186519  0.23871784     0.16700
O258        O  0.73369408  0.98825783  0.23625574    -0.60300
H259        H  0.73555717  0.00766215  0.25325596     0.43700
H260        H  0.61294013  0.86056055  0.24826121     0.43700
C261        C  0.97246709  0.60096336  0.25286129    -0.05400
C262        C  0.99708597  0.62954812  0.26704011    -0.32800
C263        C  0.98595598  0.66997986  0.26842619     0.36400
C264        C  0.94961274  0.68280406  0.25518559    -0.05700
C265        C  0.92455197  0.65402759  0.24151989    -0.32700
C266        C  0.93556549  0.61343974  0.24044284     0.36300
H267        H  0.02510212  0.62049500  0.27744836     0.16700
O268        O  0.01002209  0.69624861  0.28403409    -0.60200
H269        H  0.89659644  0.66303305  0.23104410     0.16700
O270        O  0.91085642  0.58664315  0.22598043    -0.60300
H271        H  0.89060520  0.57892550  0.24128069     0.43700
H272        H  0.03418257  0.69977480  0.27130164     0.43700
C273        C  0.89740454  0.44656127  0.49891147    -0.05400
C274        C  0.86797168  0.47144172  0.48614700    -0.32800
C275        C  0.82812362  0.45869385  0.48380245     0.36400
C276        C  0.81695175  0.42039046  0.49444508    -0.05700
C277        C  0.84641107  0.39545900  0.00718018    -0.32700
C278        C  0.88631530  0.40821741  0.00945125     0.36300
H279        H  0.87597494  0.50068947  0.47733651     0.16700
O280        O  0.80082450  0.48309816  0.46960705    -0.60200
H281        H  0.83841496  0.36618972  0.01591671     0.16700
O282        O  0.91387964  0.38356988  0.02308139    -0.60300
H283        H  0.92210938  0.36433479  0.00714053     0.43700
H284        H  0.79606167  0.50561035  0.48384764     0.43700
C285        C  0.55459167  0.10042022  0.00003029    -0.05400
C286        C  0.59530391  0.10941058  0.00467258    -0.32800
C287        C  0.60929739  0.14906526  0.00382733     0.36400
C288        C  0.58262155  0.18094295  0.99769111    -0.05700
C289        C  0.54187683  0.17189149  0.49310903    -0.32700
C290        C  0.52781931  0.13232309  0.49423939     0.36300
H291        H  0.61651427  0.08560938  0.00938231     0.16700
O292        O  0.64902622  0.15608816  0.00966631    -0.60200
H293        H  0.52059123  0.19551293  0.48819479     0.16700
O294        O  0.48779304  0.12537273  0.48942997    -0.60300
H295        H  0.48501078  0.12152515  0.46725541     0.43700
H296        H  0.65059422  0.16121228  0.03175784     0.43700
N297        N  0.63280050  0.27932860  0.49373760    -0.27200
N298        N  0.59553521  0.29014437  0.49959694    -0.35100
C299        C  0.57247183  0.25723040  0.50148327     0.01100
C300        C  0.59609052  0.22362621  0.49672489     0.07200
C301        C  0.63426799  0.23901262  0.49166216    -0.05900
H302        H  0.54085820  0.25787514  0.50672051     0.07800
H303        H  0.66128452  0.22242166  0.48677220     0.09000
Cu304      Cu  0.57664900  0.34872469  0.50575835     0.44200
Cu305      Cu  0.68023760  0.32006882  0.49060853     0.42000
Cu306      Cu  0.65024188  0.42493237  0.00085741     0.43900
N307        N  0.56314803  0.40901620  0.51015807    -0.34600
N308        N  0.59060325  0.43740414  0.00826679    -0.28800
C309        C  0.57285812  0.47343984  0.01075865    -0.04900
C310        C  0.53216309  0.46732464  0.51425680     0.07300
C311        C  0.52703920  0.42614132  0.51383478     0.01100
H312        H  0.58832238  0.50189486  0.00924115     0.08700
H313        H  0.49909321  0.40982553  0.51525785     0.07800
N314        N  0.70855951  0.40608772  0.49530406    -0.36000
N315        N  0.72012838  0.36841834  0.99187331    -0.28200
C316        C  0.76046528  0.36756248  0.99062733    -0.03500
C317        C  0.77473489  0.40660176  0.99313029     0.05100
C318        C  0.74083817  0.43001913  0.49619999     0.03200
H319        H  0.77809164  0.34050654  0.48832642     0.08300
H320        H  0.73949530  0.46201786  0.00006976     0.07200
N321        N  0.90167345  0.78180187  0.75332788    -0.27200
N322        N  0.93979626  0.79230956  0.75481477    -0.35100
C323        C  0.96256838  0.75913413  0.75575421     0.01100
C324        C  0.93770938  0.72580215  0.75508298     0.07200
C325        C  0.89923686  0.74148268  0.75333943    -0.05900
H326        H  0.99492526  0.75962239  0.75624064     0.07800
H327        H  0.87142073  0.72486238  0.75245732     0.09000
Cu328      Cu  0.95992480  0.85100933  0.75585670     0.44200
Cu329      Cu  0.85494517  0.82302709  0.75181255     0.42000
Cu330      Cu  0.88467730  0.92732724  0.76150777     0.43900
N331        N  0.97291628  0.91162818  0.75762626    -0.34600
N332        N  0.94518465  0.93971547  0.75996686    -0.28800
C333        C  0.96282749  0.97594818  0.75941051    -0.04900
C334        C  0.00364171  0.97027378  0.75658162     0.07300
C335        C  0.00904649  0.92917783  0.75558972     0.01100
H336        H  0.94698778  0.00423261  0.76034195     0.08700
H337        H  0.03700781  0.91317501  0.75296000     0.07800
N338        N  0.82601306  0.90844969  0.75748841    -0.36000
N339        N  0.81492898  0.87080633  0.75324759    -0.28200
C340        C  0.77477109  0.86946439  0.75076492    -0.03500
C341        C  0.75980431  0.90818491  0.75350113     0.05100
C342        C  0.79339968  0.93196714  0.75794388     0.03200
H343        H  0.75781169  0.84222699  0.74709262     0.08300
H344        H  0.79449930  0.96394235  0.76184216     0.07200
N345        N  0.31227947  0.59649048  0.99699021    -0.27200
N346        N  0.32286124  0.55885876  0.00194049    -0.35100
C347        C  0.29004497  0.53555487  0.00139693     0.01100
C348        C  0.25686491  0.55943976  0.99557662     0.07200
C349        C  0.27231720  0.59800717  0.99303659    -0.05900
H350        H  0.29060970  0.50373754  0.00597549     0.07800
H351        H  0.25578275  0.62535427  0.98885923     0.09000
Cu352      Cu  0.38107551  0.53987965  0.00955117     0.44200
Cu353      Cu  0.35237255  0.64435046  0.99718702     0.42000
Cu354      Cu  0.45610238  0.61670674  0.50927985     0.43900
N355        N  0.44168300  0.52801227  0.01371747    -0.34600
N356        N  0.46933913  0.55636582  0.51330270    -0.28800
C357        C  0.50575893  0.53923342  0.51435835    -0.04900
C358        C  0.50070500  0.49808968  0.51545920     0.07300
C359        C  0.45972196  0.49199857  0.01511601     0.01100
H360        H  0.53376495  0.55552103  0.51344131     0.08700
H361        H  0.44414828  0.46353187  0.01475997     0.07800
N362        N  0.43668914  0.67525970  0.00447594    -0.36000
N363        N  0.39898250  0.68573466  0.49995830    -0.28200
C364        C  0.39697094  0.72597708  0.49765460    -0.03500
C365        C  0.43536417  0.74164025  0.50096417     0.05100
C366        C  0.45960671  0.70834656  0.00519008     0.03200
H367        H  0.36958225  0.74226058  0.99326256     0.08300
H368        H  0.49166569  0.70803591  0.50880679     0.07200
O369        O  0.56441220  0.93097673  0.75122155    -0.72900
O370        O  0.44999191  0.96881764  0.74930360    -0.73800
O371        O  0.50745363  0.94850878  0.70497990    -0.62500
O372        O  0.50689603  0.95081307  0.79573159    -0.70900
O373        O  0.52551488  0.01474927  0.79532358    -0.70400
O374        O  0.53025150  0.01107478  0.70443614    -0.61700
O375        O  0.47098805  0.03185781  0.74772427    -0.74200
O376        O  0.58475303  0.99425316  0.75180396    -0.73000
Cu377      Cu  0.50643827  0.94756953  0.75037541     1.04600
Cu378      Cu  0.52858654  0.01517175  0.74982179     1.04300
C379        C  0.59276636  0.95676332  0.75182949     0.93300
C380        C  0.44239259  0.00637070  0.74778072     0.92500
C381        C  0.51930072  0.97934692  0.69039275     0.84600
C382        C  0.51603470  0.98302151  0.80985524     0.90900
O383        O  0.54928304  0.97166664  0.54514443    -0.72900
O384        O  0.54673205  0.97206339  0.95445889    -0.73800
O385        O  0.56654392  0.02945905  0.99978889    -0.62500
O386        O  0.52901788  0.91460486  0.49965443    -0.70900
O387        O  0.46598052  0.93533447  0.49919005    -0.70400
O388        O  0.50347271  0.04979120  0.00189081    -0.61700
O389        O  0.48430359  0.99497111  0.95507406    -0.74200
O390        O  0.48533550  0.98989086  0.54602212    -0.73000
Cu391      Cu  0.55009585  0.97124656  0.99975150     1.04600
Cu392      Cu  0.48258381  0.99323725  0.50060099     1.04300
C393        C  0.51753628  0.98007042  0.55988377     0.93300
C394        C  0.51536920  0.98390908  0.94045118     0.92500
C395        C  0.54085791  0.05791351  0.50070622     0.84600
C396        C  0.49151123  0.90676285  0.49921686     0.90900
N397        N  0.13540926  0.18999759  0.74168518    -0.27200
N398        N  0.09759481  0.17894292  0.74452209    -0.35100
C399        C  0.07430877  0.21170110  0.74549886     0.01100
C400        C  0.09833978  0.24543991  0.74323452     0.07200
C401        C  0.13706400  0.23037880  0.74075711    -0.05900
H402        H  0.04213474  0.21083318  0.74821547     0.07800
H403        H  0.16449474  0.24720477  0.73810292     0.09000
Cu404      Cu  0.07810326  0.12027786  0.74741520     0.44200
Cu405      Cu  0.18276421  0.14922411  0.73988119     0.42000
Cu406      Cu  0.15320987  0.04417747  0.74508378     0.43900
N407        N  0.06511693  0.05982575  0.75003871    -0.34600
N408        N  0.09291736  0.03169181  0.74891499    -0.28800
C409        C  0.07538638  0.99553602  0.75111003    -0.04900
C410        C  0.03457118  0.00131200  0.75382083     0.07300
C411        C  0.02904186  0.04240445  0.75305398     0.01100
H412        H  0.09124739  0.96724038  0.75084878     0.08700
H413        H  0.00097292  0.05849429  0.75450128     0.07800
N414        N  0.21187220  0.06342357  0.74265912    -0.36000
N415        N  0.22302376  0.10135107  0.74054363    -0.28200
C416        C  0.26331835  0.10293162  0.73988306    -0.03500
C417        C  0.27830169  0.06406057  0.74192346     0.05100
C418        C  0.24453107  0.03998632  0.74353426     0.03200
H419        H  0.28010235  0.13050012  0.73784844     0.08300
H420        H  0.24355287  0.00770147  0.74584793     0.07200
O421        O  0.04406837  0.49211008  0.79554625    -0.72900
O422        O  0.04341744  0.49748778  0.70487895    -0.73800
O423        O  0.02376396  0.55134454  0.75232532    -0.62500
O424        O  0.06395814  0.43825816  0.74839380    -0.70900
O425        O  0.00139024  0.41608177  0.74941100    -0.70400
O426        O  0.96097994  0.52997610  0.74922216    -0.61700
O427        O  0.98177820  0.47243429  0.70399862    -0.74200
O428        O  0.98023053  0.47335996  0.79494430    -0.73000
Cu429      Cu  0.04593913  0.49557231  0.75029999     1.04600
Cu430      Cu  0.97885891  0.47215498  0.74939393     1.04300
C431        C  0.01206261  0.48253910  0.80953858     0.93300
C432        C  0.01277854  0.48518621  0.69013880     0.92500
C433        C  0.98622362  0.55873064  0.75126460     0.84600
C434        C  0.03905043  0.40915332  0.74828372     0.90900
O435        O  0.94698681  0.49820339  0.00052579    -0.72900
O436        O  0.06115427  0.53648686  0.99866194    -0.73800
O437        O  0.00214451  0.51717377  0.95436128    -0.62500
O438        O  0.00565287  0.51736106  0.54532989    -0.70900
O439        O  0.02504531  0.45369252  0.54499770    -0.70400
O440        O  0.02459446  0.45449928  0.95428939    -0.61700
O441        O  0.08184613  0.47336444  0.99919785    -0.74200
O442        O  0.96803223  0.43511579  0.49973020    -0.73000
Cu443      Cu  0.00328270  0.51955798  0.99980976     1.04600
Cu444      Cu  0.02564829  0.45203190  0.49959885     1.04300
C445        C  0.93945993  0.46058605  0.00001296     0.93300
C446        C  0.08966441  0.51090005  0.99828912     0.92500
C447        C  0.01290751  0.48569517  0.94000201     0.84600
C448        C  0.01520428  0.48532229  0.55951787     0.90900
C449        C  0.01331965  0.48544281  0.65680542    -0.05400
C450        C  0.00098047  0.45125384  0.64074277    -0.32800
C451        C  0.00202826  0.45059055  0.60905068     0.36400
C452        C  0.01464579  0.48485789  0.59295611    -0.05700
C453        C  0.02624894  0.51927297  0.60910066    -0.32700
C454        C  0.02632537  0.51947601  0.64079860     0.36300
H455        H  0.99104592  0.42479693  0.65283208     0.16700
O456        O  0.99013896  0.41651346  0.59406022    -0.60200
H457        H  0.03585833  0.54591597  0.59710750     0.16700
O458        O  0.03760896  0.55362189  0.65594525    -0.60300
H459        H  0.06724485  0.55232179  0.65716405     0.43700
H460        H  0.96126540  0.42050336  0.58964807     0.43700
C461        C  0.01189188  0.48256216  0.84285309    -0.05400
C462        C  0.98087891  0.50193211  0.85844976    -0.32800
C463        C  0.98125210  0.50397943  0.89013441     0.36400
C464        C  0.01218557  0.48516346  0.90662406    -0.05700
C465        C  0.04264582  0.46498270  0.89096137    -0.32700
C466        C  0.04303971  0.46422418  0.85930380     0.36300
H467        H  0.95676358  0.51622120  0.84600680     0.16700
O468        O  0.95047062  0.52301800  0.90478200    -0.60200
H469        H  0.06659329  0.45027438  0.90330873     0.16700
O470        O  0.07315959  0.44417649  0.84463684    -0.60300
H471        H  0.09560224  0.46360517  0.84344972     0.43700
H472        H  0.95779106  0.55186235  0.90473834     0.43700
C473        C  0.08440094  0.28786638  0.74368336    -0.05400
C474        C  0.04466299  0.29649298  0.73523136    -0.32800
C475        C  0.02946336  0.33554897  0.73677041     0.36400
C476        C  0.05414340  0.36731818  0.74664198    -0.05700
C477        C  0.09408522  0.35893750  0.75461878    -0.32700
C478        C  0.10927699  0.31974566  0.75321627     0.36300
H479        H  0.02505145  0.27289339  0.72716316     0.16700
O480        O  0.99079222  0.34241418  0.72753860    -0.60200
H481        H  0.11361503  0.38279272  0.76243765     0.16700
O482        O  0.14783068  0.31286395  0.76265436    -0.59100
H483        H  0.16501328  0.32232436  0.74583161     0.43700
H484        H  0.97394733  0.33554098  0.74523767     0.43700
C485        C  0.40038550  0.02076914  0.74604207    -0.05400
C486        C  0.39161321  0.06074440  0.75364930    -0.32800
C487        C  0.35234855  0.07549432  0.75221522     0.36400
C488        C  0.32072015  0.05020834  0.74282629    -0.05700
C489        C  0.32967684  0.01030273  0.73490227    -0.32700
C490        C  0.36885192  0.99547246  0.73665069     0.36300
H491        H  0.41523877  0.08068143  0.76126434     0.16700
O492        O  0.34518780  0.11405546  0.76154345    -0.60200
H493        H  0.30628121  0.99027531  0.72710515     0.16700
O494        O  0.37603758  0.95654370  0.72815356    -0.60300
H495        H  0.36950964  0.94014916  0.74620486     0.43700
H496        H  0.35476979  0.13134497  0.74480038     0.43700
C497        C  0.51977806  0.97846962  0.65702385    -0.05400
C498        C  0.48781367  0.96064132  0.64124445    -0.32800
C499        C  0.48666489  0.96106305  0.60956046     0.36400
C500        C  0.51824967  0.97866988  0.59321469    -0.05700
C501        C  0.55089520  0.99517400  0.60896613    -0.32700
C502        C  0.55148306  0.99581314  0.64065659     0.36300
H503        H  0.46321982  0.94715057  0.65353552     0.16700
O504        O  0.45469052  0.94399075  0.59479889    -0.60200
H505        H  0.57556709  0.00849417  0.59665994     0.16700
O506        O  0.58374911  0.01229805  0.65542982    -0.60300
H507        H  0.57854838  0.04158796  0.65572007     0.43700
H508        H  0.46314353  0.91610551  0.59026111     0.43700
C509        C  0.51514670  0.98422594  0.90708348    -0.05400
C510        C  0.53214708  0.95188522  0.89138340    -0.32800
C511        C  0.53202297  0.95096579  0.85972457     0.36400
C512        C  0.51592481  0.98335417  0.84324587    -0.05700
C513        C  0.49969209  0.01617387  0.85892630    -0.32700
C514        C  0.49879325  0.01655586  0.89065318     0.36300
H515        H  0.54506529  0.92692584  0.90372576     0.16700
O516        O  0.54922542  0.91904647  0.84507976    -0.60200
H517        H  0.48719159  0.04129579  0.84653554     0.16700
O518        O  0.48245710  0.04888242  0.90535823    -0.60300
H519        H  0.50531542  0.06709014  0.90961132     0.43700
H520        H  0.52818428  0.89805006  0.84444801     0.43700
C521        C  0.44873175  0.78424113  0.49981924    -0.05400
C522        C  0.48856784  0.79291035  0.99188113    -0.32800
C523        C  0.50293726  0.83237251  0.99157761     0.36400
C524        C  0.47728831  0.86448895  0.49902379    -0.05700
C525        C  0.43732890  0.85592725  0.50664888    -0.32700
C526        C  0.42298408  0.81637856  0.50709062     0.36300
H527        H  0.50888967  0.76901749  0.98563592     0.16700
O528        O  0.54185259  0.83913196  0.98312160    -0.60200
H529        H  0.41708330  0.87996163  0.51280805     0.16700
O530        O  0.38434855  0.80954079  0.51616015    -0.60300
H531        H  0.36735871  0.81746943  0.49869018     0.43700
H532        H  0.55803147  0.83445583  0.00166261     0.43700
C533        C  0.13206010  0.52433355  0.99648255    -0.05400
C534        C  0.16196770  0.49614617  0.98963095    -0.32800
C535        C  0.20241485  0.50715085  0.98849468     0.36400
C536        C  0.21397534  0.54711348  0.99460671    -0.05700
C537        C  0.18391650  0.57559926  0.50051591    -0.32700
C538        C  0.14338477  0.56466575  0.50120972     0.36300
H539        H  0.15407021  0.46522748  0.98491221     0.16700
O540        O  0.23006020  0.47884911  0.98011021    -0.60200
H541        H  0.19171818  0.60649755  0.50525802     0.16700
O542        O  0.11535844  0.59353709  0.50750521    -0.60300
H543        H  0.10908077  0.60616018  0.48771264     0.43700
H544        H  0.23193309  0.46004750  0.99745700     0.43700
C545        C  0.71710664  0.92089986  0.75270613    -0.05400
C546        C  0.68694954  0.89301171  0.75976577    -0.32800
C547        C  0.64643161  0.90394800  0.75941978     0.36400
C548        C  0.63524104  0.94361936  0.75220079    -0.05700
C549        C  0.66534083  0.97140278  0.74494331    -0.32700
C550        C  0.70579855  0.96045069  0.74507434     0.36300
H551        H  0.69467797  0.86257907  0.76601642     0.16700
O552        O  0.61824011  0.87585442  0.76712948    -0.60200
H553        H  0.65756403  0.00186530  0.73871825     0.16700
O554        O  0.73369416  0.98825782  0.73625595    -0.60300
H555        H  0.73555668  0.00766084  0.75325533     0.43700
H556        H  0.61293991  0.86055997  0.74826067     0.43700
C557        C  0.97246711  0.60096336  0.75286119    -0.05400
C558        C  0.99708612  0.62954799  0.76704005    -0.32800
C559        C  0.98595600  0.66997972  0.76842614     0.36400
C560        C  0.94961258  0.68280400  0.75518547    -0.05700
C561        C  0.92455162  0.65402768  0.74151968    -0.32700
C562        C  0.93556536  0.61343982  0.74044260     0.36300
H563        H  0.02510252  0.62049492  0.77744798     0.16700
O564        O  0.01002198  0.69624853  0.78403415    -0.60200
H565        H  0.89659622  0.66303317  0.73104368     0.16700
O566        O  0.91085645  0.58664306  0.72598023    -0.60300
H567        H  0.89060497  0.57892528  0.74128074     0.43700
H568        H  0.03418247  0.69977485  0.77130181     0.43700
C569        C  0.89740448  0.44656117  0.99891151    -0.05400
C570        C  0.86797168  0.47144155  0.98614701    -0.32800
C571        C  0.82812361  0.45869373  0.98380248     0.36400
C572        C  0.81695169  0.42039036  0.99444514    -0.05700
C573        C  0.84641128  0.39545897  0.50718003    -0.32700
C574        C  0.88631543  0.40821745  0.50945098     0.36300
H575        H  0.87597492  0.50068930  0.97733641     0.16700
O576        O  0.80082451  0.48309804  0.96960722    -0.60200
H577        H  0.83841533  0.36618967  0.51591659     0.16700
O578        O  0.91387982  0.38356987  0.52308109    -0.60300
H579        H  0.92210874  0.36433619  0.50714120     0.43700
H580        H  0.79606147  0.50561148  0.98384859     0.43700
C581        C  0.55459142  0.10042014  0.50003024    -0.05400
C582        C  0.59530374  0.10941025  0.50467245    -0.32800
C583        C  0.60929715  0.14906500  0.50382724     0.36400
C584        C  0.58262127  0.18094289  0.49769118    -0.05700
C585        C  0.54187715  0.17189138  0.99310882    -0.32700
C586        C  0.52781949  0.13232300  0.99423928     0.36300
H587        H  0.61651412  0.08560892  0.50938183     0.16700
O588        O  0.64902593  0.15608791  0.50966623    -0.60200
H589        H  0.52059144  0.19551265  0.98819444     0.16700
O590        O  0.48779314  0.12537265  0.98943020    -0.60300
H591        H  0.48500982  0.12152460  0.96725424     0.43700
H592        H  0.65059382  0.16121206  0.53175788     0.43700
loop_ 
_geom_bond_atom_site_label_1 
_geom_bond_atom_site_label_2 
_geom_bond_distance 
_geom_bond_site_symmetry_2 
_ccdc_geom_bond_type 
N1            N2   1.322       .  A
N1            C5   1.348       .  A
N1           Cu9   2.091       .  S
N2            C3   1.343   1_556  A
N2           Cu8   2.070   1_556  S
C3            C4   1.386   1_554  A
C3            H6   1.081       .  S
C4            C5   1.392       .  A
C4          C288   1.493       .  S
C5            H7   1.080       .  S
Cu8          N11   2.069       .  S
Cu9         N315   2.091       .  S
Cu10         N12   2.061       .  S
Cu10        N314   2.061       .  S
N11         N308   1.320       .  A
N11          C15   1.344       .  A
N12         N307   1.320       .  A
N12          C13   1.344       .  A
C13         C310   1.383       .  A
C13          H16   1.082       .  S
C14          C15   1.383       .  A
C14         C309   1.383       .  A
C14          C62   1.469       .  S
C15          H17   1.082       .  S
N18         N315   1.322       .  A
N18          C22   1.341       .  A
N18        Cu306   2.061   1_556  S
N19         N314   1.322       .  A
N19          C20   1.348       .  A
N19        Cu305   2.091       .  S
C20          C21   1.390       .  A
C20         H319   1.082       .  S
C21         C318   1.382       .  A
C21         C276   1.483       .  S
C22         C317   1.382       .  A
C22         H320   1.081   1_556  S
H23         C316   1.082       .  S
H24         C318   1.081       .  S
N25          N26   1.321       .  A
N25          C29   1.346       .  A
N25         Cu33   2.080       .  S
N26          C27   1.343       .  A
N26         Cu32   2.069       .  S
C27          C28   1.387       .  A
C27          H30   1.080       .  S
C28          C29   1.389       .  A
C28         C264   1.487       .  S
C29          H31   1.082       .  S
Cu32         N35   2.068       .  S
Cu33         N43   2.080       .  S
Cu34         N36   2.063       .  S
Cu34         N42   2.064       .  S
N35          N36   1.321       .  A
N35          C39   1.344   1_655  A
N36          C37   1.344       .  A
C37          C38   1.382   1_655  A
C37          H40   1.082   1_565  S
C38          C39   1.382       .  A
C38         C114   1.467   1_565  S
C39          H41   1.082       .  S
N42          N43   1.321       .  A
N42          C46   1.342       .  A
N43          C44   1.345       .  A
C44          C45   1.389       .  A
C44          H47   1.081       .  S
C45          C46   1.386       .  A
C45         C249   1.487       .  S
C46          H48   1.080       .  S
N49          N50   1.321       .  A
N49          C53   1.346       .  A
N49         Cu57   2.082       .  S
N50          C51   1.343       .  A
N50         Cu56   2.070       .  S
C51          C52   1.388       .  A
C51          H54   1.080       .  S
C52          C53   1.390       .  A
C52         C240   1.490       .  S
C53          H55   1.081       .  S
Cu56         N59   2.069       .  S
Cu57        N363   2.082       .  S
Cu58         N60   2.067       .  S
Cu58        N362   2.067       .  S
N59         N356   1.321       .  A
N59          C63   1.344       .  A
N60         N355   1.321       .  A
N60          C61   1.344       .  A
C61          C62   1.383       .  A
C61          H64   1.082       .  S
C62         C359   1.383       .  A
C63         C358   1.383       .  A
C63          H65   1.082       .  S
N66         N363   1.321       .  A
N66          C70   1.342       .  A
N66        Cu354   2.067       .  S
N67         N362   1.321   1_556  A
N67          C68   1.347       .  A
N67        Cu353   2.082       .  S
C68          C69   1.391   1_556  A
C68         H367   1.080       .  S
C69         C366   1.386       .  A
C69         C225   1.489   1_554  S
C70         C365   1.386       .  A
C70         H368   1.082       .  S
H71         C364   1.080       .  S
H72         C366   1.082       .  S
O73         Cu81   2.013       .  S
O73          C83   1.278       .  A
O74         Cu81   2.014       .  S
O74          C84   1.279   1_565  A
O75         Cu81   2.006       .  S
O75          C85   1.277       .  A
O76         Cu81   2.006       .  S
O76          C86   1.277       .  A
O77         Cu82   2.013       .  S
O77          C86   1.278   1_545  A
O78         Cu82   2.010       .  S
O78          C85   1.278   1_545  A
O79         Cu82   2.004       .  S
O79          C84   1.278       .  A
O80         Cu82   2.002   1_565  S
O80          C83   1.278       .  A
Cu81        Cu82   2.371   1_565  S
C83         C252   1.484       .  S
C84         C189   1.484       .  S
C85         C201   1.474       .  S
C86         C216   1.475       .  S
O87        Cu391   2.006   1_554  S
O87          C97   1.277       .  A
O88         Cu95   2.004       .  S
O88          C98   1.277       .  A
O89         Cu95   2.016   1_545  S
O89         C395   1.279       .  A
O90        Cu391   2.014       .  S
O90         C100   1.279       .  A
O91         Cu96   2.009   1_556  S
O91         C100   1.278       .  A
O92        Cu392   2.010   1_545  S
O92         C395   1.278       .  A
O93        Cu392   2.013       .  S
O93          C98   1.278       .  A
O94         Cu96   2.011       .  S
O94          C97   1.278       .  A
Cu95        O383   2.006       .  S
Cu95        O386   2.014       .  S
Cu95       Cu392   2.371       .  S
Cu96        O388   2.010   1_565  S
Cu96        O389   2.013   1_554  S
Cu96       Cu391   2.371   1_554  S
C97         C204   1.473       .  S
C98         C213   1.474       .  S
C99         C285   1.489       .  S
C99         O385   1.279   1_554  A
C99         O388   1.278       .  A
C100        C228   1.487       .  S
N101        N102   1.321       .  A
N101        C105   1.348       .  A
N101       Cu109   2.087       .  S
N102        C103   1.341       .  A
N102       Cu108   2.065       .  S
C103        C104   1.385       .  A
C103        H106   1.082       .  S
C104        C105   1.392       .  A
C104        C177   1.489       .  S
C105        H107   1.080       .  S
Cu108       N111   2.064       .  S
Cu109       N119   2.087       .  S
Cu110       N112   2.063       .  S
Cu110       N118   2.064       .  S
N111        N112   1.321       .  A
N111        C115   1.344       .  A
N112        C113   1.343   1_545  A
C113        C114   1.382   1_565  A
C113        H116   1.082       .  S
C114        C115   1.382       .  A
C115        H117   1.082       .  S
N118        N119   1.321       .  A
N118        C122   1.342       .  A
N119        C120   1.347       .  A
C120        C121   1.392       .  A
C120        H123   1.080       .  S
C121        C122   1.386       .  A
C121        C192   1.490       .  S
C122        H124   1.081       .  S
O125       Cu133   2.003       .  S
O125        C135   1.277       .  A
O126       Cu133   2.009       .  S
O126        C136   1.278       .  A
O127       Cu133   2.003       .  S
O127        C137   1.278   1_455  A
O128       Cu133   2.005       .  S
O128        C138   1.277       .  A
O129       Cu134   2.015   1_455  S
O129        C138   1.279       .  A
O130       Cu134   2.018       .  S
O130        C137   1.279       .  A
O131       Cu134   2.008       .  S
O131        C136   1.277   1_655  A
O132       Cu134   2.013       .  S
O132        C135   1.278   1_655  A
Cu133      Cu134   2.371   1_455  S
C135        C165   1.472       .  S
C136        C153   1.473       .  S
C137        C261   1.482       .  S
C138        C180   1.485       .  S
O139       Cu147   2.010   1_655  S
O139        C149   1.279       .  A
O140       Cu147   2.013       .  S
O140        C150   1.278       .  A
O141       Cu147   2.009       .  S
O141        C151   1.278       .  A
O142       Cu443   2.014   1_554  S
O142        C152   1.279       .  A
O143       Cu148   2.006   1_554  S
O143        C152   1.277       .  A
O144       Cu444   2.003       .  S
O144        C151   1.277       .  A
O145       Cu444   2.006       .  S
O145        C150   1.279       .  A
O146       Cu148   2.004   1_655  S
O146        C445   1.277   1_556  A
Cu147       O438   2.014       .  S
Cu147      Cu444   2.371       .  S
Cu148       O440   2.003       .  S
Cu148       O441   2.006       .  S
Cu148      Cu443   2.371       .  S
C149        C273   1.480       .  S
C149        O442   1.277       .  A
C150        C237   1.487       .  S
C151        C168   1.475       .  S
C152        C156   1.477       .  S
C153        C154   1.403       .  A
C153        C158   1.407       .  A
C154        C155   1.401       .  A
C154        H159   1.084   1_455  S
C155        C156   1.411       .  A
C155        O160   1.372   1_455  S
C156        C157   1.404       .  A
C157        C158   1.400       .  A
C157        H161   1.084       .  S
C158        O162   1.372       .  S
O160        H164   0.992       .  S
O162        H163   0.992       .  S
C165        C166   1.403   1_455  A
C165        C170   1.407       .  A
C166        C167   1.401       .  A
C166        H171   1.084       .  S
C167        C168   1.409   1_655  A
C167        O172   1.372       .  S
C168        C169   1.404       .  A
C169        C170   1.399       .  A
C169        H173   1.084       .  S
C170        O174   1.372       .  S
O172        H176   0.992       .  S
O174        H175   0.992       .  S
C177        C178   1.407       .  A
C177        C182   1.411       .  A
C178        C179   1.399       .  A
C178        H183   1.082       .  S
C179        C180   1.409       .  A
C179        O184   1.372   1_455  S
C180        C181   1.406       .  A
C181        C182   1.403       .  A
C181        H185   1.083       .  S
C182        O186   1.371       .  S
O184        H188   0.992       .  S
O186        H187   0.992       .  S
C189        C190   1.405       .  A
C189        C194   1.409   1_545  A
C190        C191   1.401       .  A
C190        H195   1.083       .  S
C191        C192   1.412       .  A
C191        O196   1.371       .  S
C192        C193   1.407       .  A
C193        C194   1.400   1_545  A
C193        H197   1.082   1_545  S
C194        O198   1.372       .  S
O196        H200   0.992       .  S
O198        H199   0.992       .  S
C201        C202   1.404       .  A
C201        C206   1.408       .  A
C202        C203   1.400       .  A
C202        H207   1.084       .  S
C203        C204   1.408       .  A
C203        O208   1.372       .  S
C204        C205   1.403       .  A
C205        C206   1.400       .  A
C205        H209   1.084   1_565  S
C206        O210   1.372   1_565  S
O208        H212   0.992       .  S
O210        H211   0.992       .  S
C213        C214   1.402       .  A
C213        C218   1.409   1_565  A
C214        C215   1.399       .  A
C214        H219   1.084       .  S
C215        C216   1.408       .  A
C215        O220   1.372       .  S
C216        C217   1.404   1_565  A
C217        C218   1.402       .  A
C217        H221   1.084       .  S
C218        O222   1.372       .  S
O220        H224   0.992       .  S
O222        H223   0.992       .  S
C225        C230   1.411   1_556  A
C225        C522   1.406       .  A
C226        C227   1.400       .  A
C226        C521   1.406       .  A
C226        H231   1.082       .  S
C227        C524   1.410       .  A
C227        O232   1.372       .  S
C228        C229   1.406   1_556  A
C228        C523   1.410       .  A
C229        C230   1.402       .  A
C229        H233   1.083       .  S
C230        O234   1.371       .  S
O232        H236   0.992       .  S
O234        H235   0.992   1_554  S
C237        C238   1.405       .  A
C237        C538   1.411       .  A
C238        C239   1.400       .  A
C238        H243   1.083       .  S
C239        C240   1.412       .  A
C239        O244   1.372       .  S
C240        C537   1.407       .  A
C241        C242   1.402       .  A
C241        C536   1.407   1_554  A
C241        H245   1.082       .  S
C242        C533   1.411   1_554  A
C242        O246   1.371       .  S
O244        H248   0.992       .  S
O246        H247   0.992   1_554  S
C249        C250   1.406       .  A
C249        C254   1.412       .  A
C250        C251   1.401       .  A
C250        H255   1.083       .  S
C251        C252   1.411       .  A
C251        O256   1.371       .  S
C252        C253   1.404       .  A
C253        C254   1.399       .  A
C253        H257   1.084   1_565  S
C254        O258   1.371       .  S
O256        H260   0.992       .  S
O258        H259   0.992   1_565  S
C261        C262   1.404       .  A
C261        C266   1.410       .  A
C262        C263   1.399       .  A
C262        H267   1.084   1_655  S
C263        C264   1.411       .  A
C263        O268   1.372   1_655  S
C264        C265   1.407       .  A
C265        C266   1.403       .  A
C265        H269   1.083       .  S
C266        O270   1.371       .  S
O268        H272   0.992       .  S
O270        H271   0.992       .  S
C273        C274   1.403       .  A
C273        C574   1.410       .  A
C274        C275   1.400       .  A
C274        H279   1.084       .  S
C275        C276   1.411       .  A
C275        O280   1.372       .  S
C276        C573   1.404       .  A
C277        C278   1.401       .  A
C277        C572   1.404   1_554  A
C277        H281   1.083       .  S
C278        C569   1.410   1_554  A
C278        O282   1.372       .  S
O280        H284   0.992       .  S
O282        H283   0.991       .  S
C285        C286   1.406       .  A
C285        C586   1.412   1_554  A
C286        C287   1.402       .  A
C286        H291   1.083       .  S
C287        C288   1.412   1_554  A
C287        O292   1.370       .  S
C288        C585   1.407       .  A
C289        C290   1.401       .  A
C289        C584   1.407       .  A
C289        H293   1.082       .  S
C290        C581   1.412       .  A
C290        O294   1.372       .  S
O292        H296   0.992       .  S
O294        H295   0.992       .  S
N297        N298   1.322       .  A
N297        C301   1.348       .  A
N297       Cu305   2.091       .  S
N298        C299   1.343       .  A
N298       Cu304   2.070       .  S
C299        C300   1.386       .  A
C299        H302   1.081       .  S
C300        C301   1.392       .  A
C300        C584   1.493       .  S
C301        H303   1.080       .  S
Cu304       N307   2.069       .  S
Cu306       N308   2.061       .  S
N307        C311   1.344       .  A
N308        C309   1.344       .  A
C309        H312   1.082       .  S
C310        C311   1.383       .  A
C310        C358   1.469       .  S
C311        H313   1.082       .  S
N314        C318   1.341       .  A
N315        C316   1.348       .  A
C316        C317   1.390       .  A
C317        C572   1.483       .  S
N321        N322   1.321       .  A
N321        C325   1.346       .  A
N321       Cu329   2.080       .  S
N322        C323   1.343       .  A
N322       Cu328   2.069       .  S
C323        C324   1.387       .  A
C323        H326   1.080       .  S
C324        C325   1.389       .  A
C324        C560   1.487       .  S
C325        H327   1.082       .  S
Cu328       N331   2.068       .  S
Cu329       N339   2.080       .  S
Cu330       N332   2.063       .  S
Cu330       N338   2.064       .  S
N331        N332   1.321       .  A
N331        C335   1.344   1_655  A
N332        C333   1.344       .  A
C333        C334   1.382   1_655  A
C333        H336   1.082   1_565  S
C334        C335   1.382       .  A
C334        C410   1.467   1_565  S
C335        H337   1.082       .  S
N338        N339   1.321       .  A
N338        C342   1.342       .  A
N339        C340   1.345       .  A
C340        C341   1.389       .  A
C340        H343   1.081       .  S
C341        C342   1.386       .  A
C341        C545   1.487       .  S
C342        H344   1.080       .  S
N345        N346   1.321   1_556  A
N345        C349   1.346       .  A
N345       Cu353   2.082       .  S
N346        C347   1.343       .  A
N346       Cu352   2.070       .  S
C347        C348   1.388   1_554  A
C347        H350   1.080       .  S
C348        C349   1.390       .  A
C348        C536   1.490       .  S
C349        H351   1.081       .  S
Cu352       N355   2.069       .  S
Cu354       N356   2.067       .  S
N355        C359   1.344       .  A
N356        C357   1.344       .  A
C357        C358   1.383       .  A
C357        H360   1.082       .  S
C359        H361   1.082       .  S
N362        C366   1.342       .  A
N363        C364   1.347       .  A
C364        C365   1.391       .  A
C365        C521   1.489       .  S
O369       Cu377   2.013       .  S
O369        C379   1.278       .  A
O370       Cu377   2.014       .  S
O370        C380   1.279   1_565  A
O371       Cu377   2.006       .  S
O371        C381   1.277       .  A
O372       Cu377   2.006       .  S
O372        C382   1.277       .  A
O373       Cu378   2.013       .  S
O373        C382   1.278   1_545  A
O374       Cu378   2.010       .  S
O374        C381   1.278   1_545  A
O375       Cu378   2.004       .  S
O375        C380   1.278       .  A
O376       Cu378   2.002   1_565  S
O376        C379   1.278       .  A
Cu377      Cu378   2.371   1_565  S
C379        C548   1.484       .  S
C380        C485   1.484       .  S
C381        C497   1.474       .  S
C382        C512   1.475       .  S
O383        C393   1.277       .  A
O384       Cu391   2.004       .  S
O384        C394   1.277       .  A
O385       Cu391   2.016   1_545  S
O386        C396   1.279       .  A
O387       Cu392   2.009       .  S
O387        C396   1.278       .  A
O389        C394   1.278       .  A
O390       Cu392   2.011       .  S
O390        C393   1.278       .  A
C393        C500   1.473       .  S
C394        C509   1.474       .  S
C395        C581   1.489       .  S
C396        C524   1.487       .  S
N397        N398   1.321       .  A
N397        C401   1.348       .  A
N397       Cu405   2.087       .  S
N398        C399   1.341       .  A
N398       Cu404   2.065       .  S
C399        C400   1.385       .  A
C399        H402   1.082       .  S
C400        C401   1.392       .  A
C400        C473   1.489       .  S
C401        H403   1.080       .  S
Cu404       N407   2.064       .  S
Cu405       N415   2.087       .  S
Cu406       N408   2.063       .  S
Cu406       N414   2.064       .  S
N407        N408   1.321       .  A
N407        C411   1.344       .  A
N408        C409   1.343   1_545  A
C409        C410   1.382   1_565  A
C409        H412   1.082       .  S
C410        C411   1.382       .  A
C411        H413   1.082       .  S
N414        N415   1.321       .  A
N414        C418   1.342       .  A
N415        C416   1.347       .  A
C416        C417   1.392       .  A
C416        H419   1.080       .  S
C417        C418   1.386       .  A
C417        C488   1.490       .  S
C418        H420   1.081       .  S
O421       Cu429   2.003       .  S
O421        C431   1.277       .  A
O422       Cu429   2.009       .  S
O422        C432   1.278       .  A
O423       Cu429   2.003       .  S
O423        C433   1.278   1_455  A
O424       Cu429   2.005       .  S
O424        C434   1.277       .  A
O425       Cu430   2.015   1_455  S
O425        C434   1.279       .  A
O426       Cu430   2.018       .  S
O426        C433   1.279       .  A
O427       Cu430   2.008       .  S
O427        C432   1.277   1_655  A
O428       Cu430   2.013       .  S
O428        C431   1.278   1_655  A
Cu429      Cu430   2.371   1_455  S
C431        C461   1.472       .  S
C432        C449   1.473       .  S
C433        C557   1.482       .  S
C434        C476   1.485       .  S
O435       Cu443   2.010   1_654  S
O435        C445   1.279       .  A
O436       Cu443   2.013       .  S
O436        C446   1.278       .  A
O437       Cu443   2.009       .  S
O437        C447   1.278       .  A
O438        C448   1.279       .  A
O439       Cu444   2.006       .  S
O439        C448   1.277       .  A
O440        C447   1.277       .  A
O441        C446   1.279       .  A
O442       Cu444   2.004   1_655  S
C445        C569   1.480   1_554  S
C446        C533   1.487       .  S
C447        C464   1.475       .  S
C448        C452   1.477       .  S
C449        C450   1.403       .  A
C449        C454   1.407       .  A
C450        C451   1.401       .  A
C450        H455   1.084   1_455  S
C451        C452   1.411       .  A
C451        O456   1.372   1_455  S
C452        C453   1.404       .  A
C453        C454   1.400       .  A
C453        H457   1.084       .  S
C454        O458   1.372       .  S
O456        H460   0.992       .  S
O458        H459   0.992       .  S
C461        C462   1.403   1_455  A
C461        C466   1.407       .  A
C462        C463   1.401       .  A
C462        H467   1.084       .  S
C463        C464   1.409   1_655  A
C463        O468   1.372       .  S
C464        C465   1.403       .  A
C465        C466   1.399       .  A
C465        H469   1.084       .  S
C466        O470   1.372       .  S
O468        H472   0.992       .  S
O470        H471   0.992       .  S
C473        C474   1.407       .  A
C473        C478   1.411       .  A
C474        C475   1.399       .  A
C474        H479   1.082       .  S
C475        C476   1.409       .  A
C475        O480   1.372   1_455  S
C476        C477   1.406       .  A
C477        C478   1.403       .  A
C477        H481   1.083       .  S
C478        O482   1.371       .  S
O480        H484   0.992       .  S
O482        H483   0.992       .  S
C485        C486   1.405       .  A
C485        C490   1.409   1_545  A
C486        C487   1.401       .  A
C486        H491   1.083       .  S
C487        C488   1.412       .  A
C487        O492   1.371       .  S
C488        C489   1.407       .  A
C489        C490   1.400   1_545  A
C489        H493   1.082   1_545  S
C490        O494   1.372       .  S
O492        H496   0.992       .  S
O494        H495   0.992       .  S
C497        C498   1.404       .  A
C497        C502   1.408       .  A
C498        C499   1.400       .  A
C498        H503   1.084       .  S
C499        C500   1.408       .  A
C499        O504   1.372       .  S
C500        C501   1.403       .  A
C501        C502   1.400       .  A
C501        H505   1.084   1_565  S
C502        O506   1.372   1_565  S
O504        H508   0.992       .  S
O506        H507   0.992       .  S
C509        C510   1.402       .  A
C509        C514   1.409   1_565  A
C510        C511   1.399       .  A
C510        H515   1.084       .  S
C511        C512   1.408       .  A
C511        O516   1.372       .  S
C512        C513   1.404   1_565  A
C513        C514   1.402       .  A
C513        H517   1.084       .  S
C514        O518   1.372       .  S
O516        H520   0.992       .  S
O518        H519   0.992       .  S
C521        C526   1.411       .  A
C522        C523   1.400       .  A
C522        H527   1.082       .  S
C523        O528   1.372       .  S
C524        C525   1.406       .  A
C525        C526   1.402       .  A
C525        H529   1.083       .  S
C526        O530   1.371       .  S
O528        H532   0.992   1_556  S
O530        H531   0.992       .  S
C533        C534   1.405       .  A
C534        C535   1.400       .  A
C534        H539   1.083       .  S
C535        C536   1.412       .  A
C535        O540   1.372       .  S
C537        C538   1.402       .  A
C537        H541   1.082       .  S
C538        O542   1.371       .  S
O540        H544   0.992       .  S
O542        H543   0.992       .  S
C545        C546   1.406       .  A
C545        C550   1.412       .  A
C546        C547   1.401       .  A
C546        H551   1.083       .  S
C547        C548   1.411       .  A
C547        O552   1.371       .  S
C548        C549   1.404       .  A
C549        C550   1.399       .  A
C549        H553   1.084   1_565  S
C550        O554   1.371       .  S
O552        H556   0.992       .  S
O554        H555   0.992   1_565  S
C557        C558   1.404       .  A
C557        C562   1.410       .  A
C558        C559   1.399       .  A
C558        H563   1.084   1_655  S
C559        C560   1.411       .  A
C559        O564   1.372   1_655  S
C560        C561   1.407       .  A
C561        C562   1.403       .  A
C561        H565   1.083       .  S
C562        O566   1.371       .  S
O564        H568   0.992       .  S
O566        H567   0.992       .  S
C569        C570   1.403       .  A
C570        C571   1.400       .  A
C570        H575   1.084       .  S
C571        C572   1.411       .  A
C571        O576   1.372       .  S
C573        C574   1.401       .  A
C573        H577   1.083       .  S
C574        O578   1.372       .  S
O576        H580   0.992       .  S
O578        H579   0.991       .  S
C581        C582   1.406       .  A
C582        C583   1.402       .  A
C582        H587   1.083       .  S
C583        C584   1.412       .  A
C583        O588   1.370       .  S
C585        C586   1.401       .  A
C585        H589   1.082       .  S
C586        O590   1.372       .  S
O588        H592   0.992       .  S
O590        H591   0.992       .  S
