geometry optimzed in LAMMPS
_audit_creation_date              2020-12-01 
_audit_creation_method            'lammps2cif' 
_symmetry_space_group_name_H-M    'P1' 
_symmetry_Int_Tables_number       1 
_symmetry_cell_setting            triclinic 
loop_ 
_symmetry_equiv_pos_as_xyz 
  x,y,z 
_cell_length_a                    44.28915034 
_cell_length_b                    44.26375893540231 
_cell_length_c                    54.311977123976504 
_cell_angle_alpha                 89.74616900382613 
_cell_angle_beta                  88.32849333220388 
_cell_angle_gamma                 92.62790152607026 
loop_ 
_atom_site_label 
_atom_site_type_symbol 
_atom_site_fract_x 
_atom_site_fract_y 
_atom_site_fract_z 
_atom_site_charge 
N1          N  0.98775636  0.06178832  0.84764003    -0.25800
N2          N  0.99356690  0.04646475  0.82731922    -0.33700
C3          C  0.99514570  0.06552382  0.80793838     0.02500
C4          C  0.99010947  0.09417806  0.81645174     0.08500
C5          C  0.98553747  0.09117477  0.84166016    -0.04600
H6          H  0.00040293  0.05907037  0.78916005     0.09200
H7          H  0.98174215  0.10906405  0.85474596     0.10400
Cu8        Cu  0.00104373  0.00074569  0.82670895     0.44200
Cu9        Cu  0.48550136  0.04194697  0.88260508     0.42000
Cu10       Cu  0.50511760  0.46275582  0.88513324     0.43900
N11         N  0.00780058  0.45504196  0.83016578    -0.33200
N12         N  0.00924299  0.44085510  0.85154705    -0.27500
C13         C  0.01189986  0.41110261  0.84739291    -0.03600
C14         C  0.01220498  0.40664655  0.82222810     0.08600
C15         C  0.00956114  0.43483110  0.81184686     0.02400
H16         H  0.01261602  0.39398234  0.86161809     0.10100
H17         H  0.00805882  0.44017611  0.79247369     0.09200
N18         N  0.49688728  0.48897512  0.91602441    -0.34700
N19         N  0.48902495  0.01720306  0.91511089    -0.26800
C20         C  0.48424858  0.02688705  0.93831592    -0.02100
C21         C  0.49027452  0.50399161  0.95456750     0.06500
C22         C  0.49858435  0.48027130  0.93969448     0.04600
H23         H  0.47702017  0.04917966  0.94311753     0.09700
H24         H  0.50491132  0.45811128  0.94557329     0.08600
N25         N  0.19852395  0.23961364  0.62641048    -0.25800
N26         N  0.21183846  0.23726897  0.64780625    -0.33700
C27         C  0.19063483  0.23752973  0.66609479     0.02500
C28         C  0.16276608  0.24012287  0.65569340     0.08500
C29         C  0.16850939  0.24141731  0.63055912    -0.04600
H30         H  0.19517445  0.23568283  0.68549768     0.09200
H31         H  0.15209185  0.24314236  0.61631126     0.10400
Cu32       Cu  0.25822606  0.23307734  0.65125799     0.44200
Cu33       Cu  0.22155134  0.23862333  0.59240807     0.42000
Cu34       Cu  0.30019385  0.21949385  0.59459325     0.43900
N35         N  0.30496108  0.22908674  0.64940098    -0.33200
N36         N  0.32022718  0.22374616  0.62868501    -0.27500
C37         C  0.34994180  0.22373528  0.63334004    -0.03600
C38         C  0.35346881  0.22928893  0.65812265     0.08600
C39         C  0.32459105  0.23259815  0.66778572     0.02400
H40         H  0.36768015  0.22072097  0.61957055     0.10100
H41         H  0.31834328  0.23784917  0.68663865     0.09200
N42         N  0.27688909  0.22314110  0.56205196    -0.34700
N43         N  0.24877378  0.23188250  0.56113192    -0.26800
C44         C  0.24122943  0.23423911  0.53736311    -0.02100
C45         C  0.26567888  0.22626509  0.52265692     0.06500
C46         C  0.28774517  0.21916091  0.53893803     0.04600
H47         H  0.21938975  0.24072607  0.53128368     0.09700
H48         H  0.31032973  0.21228335  0.53430252     0.08600
C49         C  0.00736255  0.28015023  0.75410874     0.87900
C50         C  0.48028886  0.27831633  0.73710958    -0.52300
C51         C  0.47930561  0.25308369  0.72273271     0.10900
C52         C  0.00567300  0.23210588  0.72657654     0.21800
C53         C  0.00520268  0.25051958  0.76885428    -0.53000
C54         C  0.00424247  0.22537079  0.75445747     0.11000
C55         C  0.03530169  0.27784995  0.73706121    -0.52500
C56         C  0.03452841  0.25270311  0.72264418     0.11500
H57         H  0.46308522  0.29503923  0.73689807     0.16100
H58         H  0.00492981  0.21154393  0.71490420     0.01800
H59         H  0.00417884  0.24950438  0.78886066     0.16400
H60         H  0.05418567  0.29443224  0.73663898     0.16200
C61         C  0.21654691  0.49214828  0.22489318     0.87900
C62         C  0.21913290  0.01961815  0.24178176    -0.52300
C63         C  0.24536822  0.02119921  0.25442566     0.10900
C64         C  0.26651245  0.49499515  0.24908488     0.21800
C65         C  0.24507444  0.49397455  0.20821504    -0.53000
C66         C  0.27120719  0.49554199  0.22087416     0.11000
C67         C  0.22023000  0.46477891  0.24170222    -0.52500
C68         C  0.24639479  0.46614804  0.25435075     0.11500
H69         H  0.20228178  0.03665505  0.24322754     0.16100
H70         H  0.28789414  0.49621683  0.25932114     0.01800
H71         H  0.24465752  0.49426980  0.18821696     0.16400
H72         H  0.20383727  0.44577391  0.24317828     0.16200
N73         N  0.05780004  0.47819122  0.12885277    -0.25800
N74         N  0.04238202  0.48362054  0.14946195    -0.33700
C75         C  0.06137238  0.48495560  0.16832391     0.02500
C76         C  0.09006793  0.48014610  0.15914423     0.08500
C77         C  0.08716721  0.47595438  0.13410192    -0.04600
H78         H  0.05486954  0.49002518  0.18716139     0.09200
H79         H  0.10512589  0.47258025  0.12060122     0.10400
Cu80       Cu  0.49674229  0.49138284  0.15095832     0.44200
Cu81       Cu  0.03825385  0.47720871  0.09441309     0.42000
Cu82       Cu  0.46068350  0.50218034  0.09323132     0.43900
N83         N  0.45141644  0.49958100  0.14833185    -0.33200
N84         N  0.43797802  0.50379305  0.12724112    -0.27500
C85         C  0.40825834  0.50704889  0.13189521    -0.03600
C86         C  0.40306486  0.50482553  0.15707111     0.08600
C87         C  0.43076696  0.50007557  0.16693108     0.02400
H88         H  0.39162215  0.50985895  0.11796527     0.10100
H89         H  0.43547768  0.49636129  0.18611869     0.09200
N90         N  0.48719195  0.49422379  0.06188243    -0.34700
N91         N  0.01464346  0.48364882  0.06230885    -0.26800
C92         C  0.02468334  0.47945441  0.03899061    -0.02100
C93         C  0.50278927  0.48827904  0.02315449     0.06500
C94         C  0.47929793  0.49749294  0.03830122     0.04600
H95         H  0.04656006  0.47107529  0.03391709     0.09700
H96         H  0.45778266  0.50538223  0.03266631     0.08600
N97         N  0.25806912  0.30417324  0.34849665    -0.25800
N98         N  0.26483502  0.29044153  0.32758405    -0.33700
C99         C  0.26720806  0.31118098  0.30929630     0.02500
C100        C  0.26170352  0.33916558  0.31924411     0.08500
C101        C  0.25594531  0.33395691  0.34406457    -0.04600
H102        H  0.27247600  0.30621938  0.29020332     0.09200
H103        H  0.25073978  0.35056772  0.35792312     0.10400
Cu104      Cu  0.27017450  0.24396581  0.32501279     0.44200
Cu105      Cu  0.25326491  0.28203051  0.38238014     0.42000
Cu106      Cu  0.27023373  0.20287362  0.38323474     0.43900
N107        N  0.27195786  0.19705099  0.32770394    -0.33200
N108        N  0.27202237  0.18215414  0.34889645    -0.27500
C109        C  0.27134107  0.15223821  0.34434642    -0.03600
C110        C  0.27090008  0.14818134  0.31915876     0.08600
C111        C  0.27126928  0.17695638  0.30913564     0.02400
H112        H  0.27025704  0.13476287  0.35837792     0.10100
H113        H  0.27013877  0.18285583  0.28984131     0.09200
N114        N  0.26296538  0.22805387  0.41498883    -0.34700
N115        N  0.25517710  0.25654141  0.41455873    -0.26800
C116        C  0.25031001  0.26587390  0.43783505    -0.02100
C117        C  0.25576474  0.24236249  0.45371485     0.06500
C118        C  0.26375818  0.21869068  0.43859631     0.04600
H119        H  0.24370596  0.28831048  0.44285702     0.09700
H120        H  0.26903870  0.19612303  0.44426970     0.08600
C121        C  0.37449093  0.50448272  0.17035657    -0.17000
C122        C  0.35111765  0.50312585  0.18236153     0.07000
C123        C  0.32397136  0.50067741  0.19669975     0.08700
C124        C  0.30040889  0.49828012  0.20840202    -0.17900
C125        C  0.11750319  0.48212805  0.17270104    -0.17000
C126        C  0.13998546  0.48457962  0.18468928     0.07000
C127        C  0.16608759  0.48778299  0.19898163     0.08900
C128        C  0.18856350  0.49021397  0.21098381    -0.17900
C129        C  0.26154484  0.36779902  0.30639690    -0.17000
C130        C  0.26067517  0.39165745  0.29553572     0.07000
C131        C  0.25826981  0.41911216  0.28230100     0.08900
C132        C  0.25431842  0.44151864  0.27019343    -0.17900
C133        C  0.25331577  0.04666134  0.26997608    -0.17000
C134        C  0.25882408  0.06910993  0.28196122     0.07000
C135        C  0.26410035  0.09628722  0.29523041     0.08900
C136        C  0.26769688  0.11984942  0.30619908    -0.17900
C137        C  0.26822367  0.22499006  0.49544834    -0.15000
C138        C  0.25255825  0.24285814  0.48091348    -0.30100
H139        H  0.28460597  0.21021283  0.48725213     0.14000
H140        H  0.23812662  0.25946782  0.48917751     0.14600
C141        C  0.13372548  0.24071031  0.66845415    -0.17000
C142        C  0.10971469  0.24145942  0.67960045     0.07000
C143        C  0.08215177  0.24321181  0.69339855     0.08900
C144        C  0.05957775  0.24623031  0.70606626    -0.17900
C145        C  0.38156148  0.23291762  0.67088227    -0.17000
C146        C  0.40495832  0.23645602  0.68169431     0.07000
C147        C  0.43195965  0.24123144  0.69486081     0.08900
C148        C  0.45421827  0.24605768  0.70689254    -0.17900
C149        C  0.50443380  0.48711597  0.99594768    -0.15000
C150        C  0.48826894  0.50498207  0.98178186    -0.30100
H151        H  0.02035106  0.47211964  0.98741711     0.14000
H152        H  0.47421066  0.02151573  0.99007116     0.14600
C153        C  0.99201925  0.12166414  0.80211581    -0.17000
C154        C  0.99451635  0.14445980  0.78980235     0.07000
C155        C  0.99802844  0.17148694  0.77582020     0.08900
C156        C  0.00106854  0.19539218  0.76505370    -0.17900
C157        C  0.00849355  0.30711057  0.76978636    -0.17000
C158        C  0.00982177  0.32920124  0.78270337     0.07000
C159        C  0.01136466  0.35540175  0.79744653     0.08900
C160        C  0.01220895  0.37836483  0.80932239    -0.17900
N161        N  0.98724355  0.56171924  0.84772204    -0.25800
N162        N  0.99352925  0.54648190  0.82744734    -0.33700
C163        C  0.99533779  0.56559489  0.80809828     0.02500
C164        C  0.98994833  0.59419121  0.81657931     0.08500
C165        C  0.98493006  0.59109449  0.84173756    -0.04600
H166        H  0.00095582  0.55921653  0.78936690     0.09200
H167        H  0.98076487  0.60892254  0.85479819     0.10400
Cu168      Cu  0.00118934  0.50077800  0.82684029     0.44200
Cu169      Cu  0.48453849  0.54182927  0.88268898     0.42000
Cu170      Cu  0.50614087  0.96284710  0.88499056     0.43900
N171        N  0.00791827  0.95507713  0.82999093    -0.33200
N172        N  0.00983348  0.94091933  0.85134038    -0.27500
C173        C  0.01259747  0.91118770  0.84713497    -0.03600
C174        C  0.01247496  0.90672842  0.82197249     0.08600
C175        C  0.00947040  0.93488174  0.81164995     0.02400
H176        H  0.01366805  0.89407816  0.86133217     0.10100
H177        H  0.00759304  0.94021476  0.79230834     0.09200
N178        N  0.49781139  0.98904067  0.91590423    -0.34700
N179        N  0.48813185  0.51714756  0.91523902    -0.26800
C180        C  0.48359093  0.52689158  0.93845942    -0.02100
C181        C  0.49080531  0.00396533  0.95443610     0.06500
C182        C  0.49929824  0.98028857  0.93958265     0.04600
H183        H  0.47647513  0.54921874  0.94327832     0.09700
H184        H  0.50556064  0.95811376  0.94547890     0.08600
N185        N  0.19827108  0.73931382  0.62648865    -0.25800
N186        N  0.21155771  0.73674745  0.64787833    -0.33700
C187        C  0.19031969  0.73673937  0.66615453     0.02500
C188        C  0.16245820  0.73937858  0.65575017     0.08500
C189        C  0.16824259  0.74098558  0.63063118    -0.04600
H190        H  0.19483644  0.73471766  0.68554939     0.09200
H191        H  0.15184674  0.74288494  0.61638612     0.10400
Cu192      Cu  0.25795378  0.73263399  0.65134775     0.44200
Cu193      Cu  0.22133135  0.73888799  0.59246722     0.42000
Cu194      Cu  0.29991778  0.71967869  0.59460886     0.43900
N195        N  0.30466801  0.72850075  0.64948315    -0.33200
N196        N  0.31993466  0.72337312  0.62872701    -0.27500
C197        C  0.34964013  0.72320564  0.63338405    -0.03600
C198        C  0.35315870  0.72843089  0.65821385     0.08600
C199        C  0.32428849  0.73171625  0.66789919     0.02400
H200        H  0.36738103  0.72035781  0.61958495     0.10100
H201        H  0.31804601  0.73679514  0.68678720     0.09200
N202        N  0.27670642  0.72370912  0.56207486    -0.34700
N203        N  0.24861470  0.73251490  0.56114917    -0.26800
C204        C  0.24113340  0.73500409  0.53736895    -0.02100
C205        C  0.26559995  0.72702239  0.52267917     0.06500
C206        C  0.28760286  0.71980123  0.53896965     0.04600
H207        H  0.21930297  0.74149225  0.53126824     0.09700
H208        H  0.31015472  0.71281861  0.53434930     0.08600
C209        C  0.00713213  0.78021024  0.75385551     0.87900
C210        C  0.47999223  0.77822268  0.73695857    -0.52300
C211        C  0.47895811  0.75285679  0.72273270     0.10900
C212        C  0.00533747  0.73192056  0.72660981     0.21800
C213        C  0.00504286  0.75070171  0.76877283    -0.53000
C214        C  0.00402320  0.72542485  0.75452495     0.11000
C215        C  0.03499923  0.77777228  0.73674787    -0.52500
C216        C  0.03417174  0.75249323  0.72248490     0.11500
H217        H  0.46278350  0.79493728  0.73669187     0.16100
H218        H  0.00455122  0.71125513  0.71505903     0.01800
H219        H  0.00410217  0.74986010  0.78878411     0.16400
H220        H  0.05388811  0.79434923  0.73619047     0.16200
C221        C  0.21633895  0.99206770  0.22481276     0.87900
C222        C  0.21947579  0.51981499  0.24172427    -0.52300
C223        C  0.24572927  0.52138945  0.25434355     0.10900
C224        C  0.26626869  0.99494065  0.24905041     0.21800
C225        C  0.24488723  0.99412267  0.20816184    -0.53000
C226        C  0.27099960  0.99569619  0.22084858     0.11000
C227        C  0.22011472  0.96460008  0.24149500    -0.52500
C228        C  0.24626147  0.96599686  0.25416626     0.11500
H229        H  0.20269725  0.53693021  0.24309673     0.16100
H230        H  0.28763469  0.99616922  0.25930835     0.01800
H231        H  0.24449852  0.99452670  0.18816383     0.16400
H232        H  0.20379746  0.94552398  0.24287731     0.16200
N233        N  0.05753014  0.97821041  0.12883017    -0.25800
N234        N  0.04214768  0.98374991  0.14943074    -0.33700
C235        C  0.06115422  0.98506521  0.16828351     0.02500
C236        C  0.08982333  0.98012424  0.15909979     0.08500
C237        C  0.08688750  0.97587724  0.13406778    -0.04600
H238        H  0.05468558  0.99020793  0.18711400     0.09200
H239        H  0.10481941  0.97240853  0.12056386     0.10400
Cu240      Cu  0.49652118  0.99161721  0.15087415     0.44200
Cu241      Cu  0.03793053  0.97724486  0.09442726     0.42000
Cu242      Cu  0.46028421  0.00202775  0.09306943     0.43900
N243        N  0.45115727  0.99963924  0.14820934    -0.33200
N244        N  0.43765361  0.00367314  0.12711948    -0.27500
C245        C  0.40792950  0.00686727  0.13180561    -0.03600
C246        C  0.40280543  0.00479389  0.15699645     0.08600
C247        C  0.43054770  0.00019184  0.16683350     0.02400
H248        H  0.39125073  0.00956961  0.11789268     0.10100
H249        H  0.43532112  0.99664092  0.18603009     0.09200
N250        N  0.48695233  0.99418112  0.06177596    -0.34700
N251        N  0.01443114  0.98368545  0.06228345    -0.26800
C252        C  0.02461775  0.97953930  0.03900359    -0.02100
C253        C  0.50280160  0.98831260  0.02309843     0.06500
C254        C  0.47918814  0.99744813  0.03815894     0.04600
H255        H  0.04654847  0.97122798  0.03401176     0.09700
H256        H  0.45768388  0.00527753  0.03244051     0.08600
N257        N  0.25956544  0.80433307  0.34828726    -0.25800
N258        N  0.26656500  0.79057855  0.32743769    -0.33700
C259        C  0.26874705  0.81123685  0.30908641     0.02500
C260        C  0.26287146  0.83918170  0.31894164     0.08500
C261        C  0.25709567  0.83404226  0.34376022    -0.04600
H262        H  0.27407611  0.80623762  0.29001086     0.09200
H263        H  0.25159388  0.85064108  0.35754836     0.10400
Cu264      Cu  0.27216990  0.74414706  0.32502683     0.44200
Cu265      Cu  0.25470077  0.78234473  0.38219565     0.42000
Cu266      Cu  0.27020125  0.70289194  0.38332283     0.43900
N267        N  0.27327624  0.69719515  0.32775865    -0.33200
N268        N  0.27245036  0.68222294  0.34894811    -0.27500
C269        C  0.27136618  0.65231315  0.34433746    -0.03600
C270        C  0.27160743  0.64834511  0.31912056     0.08600
C271        C  0.27279243  0.67716531  0.30914239     0.02400
H272        H  0.26957462  0.63479540  0.35832907     0.10100
H273        H  0.27232462  0.68315756  0.28982657     0.09200
N274        N  0.26324481  0.72833536  0.41501299    -0.34700
N275        N  0.25608168  0.75700801  0.41445972    -0.26800
C276        C  0.25133604  0.76658031  0.43768250    -0.02100
C277        C  0.25620226  0.74301596  0.45366966     0.06500
C278        C  0.26373833  0.71907266  0.43866443     0.04600
H279        H  0.24519316  0.78919910  0.44259174     0.09700
H280        H  0.26851012  0.69640698  0.44444632     0.08600
C281        C  0.37427280  0.00453482  0.17033552    -0.17000
C282        C  0.35092864  0.00326213  0.18237819     0.07000
C283        C  0.32379285  0.00089032  0.19673052     0.08700
C284        C  0.30021870  0.99850644  0.20841512    -0.17900
C285        C  0.11728026  0.98206145  0.17263148    -0.17000
C286        C  0.13978560  0.98449150  0.18459428     0.07000
C287        C  0.16590276  0.98768618  0.19887097     0.08900
C288        C  0.18837505  0.99012012  0.21087794    -0.17900
C289        C  0.26233123  0.86771761  0.30602261    -0.17000
C290        C  0.26115252  0.89153270  0.29516338     0.07000
C291        C  0.25843346  0.91895024  0.28197210     0.08900
C292        C  0.25428606  0.94134043  0.26991876    -0.17900
C293        C  0.25377925  0.54694368  0.26977434    -0.17000
C294        C  0.25933344  0.56943090  0.28170683     0.07000
C295        C  0.26465576  0.59659248  0.29499759     0.08900
C296        C  0.26830891  0.62009675  0.30604357    -0.17900
C297        C  0.26817429  0.72561770  0.49548270    -0.15000
C298        C  0.25288697  0.74370967  0.48085913    -0.30100
H299        H  0.28432566  0.71053778  0.48736303     0.14000
H300        H  0.23873682  0.76061775  0.48903816     0.14600
C301        C  0.13340113  0.73992451  0.66848958    -0.17000
C302        C  0.10936117  0.74073670  0.67958434     0.07000
C303        C  0.08176661  0.74264871  0.69331205     0.08900
C304        C  0.05918814  0.74583333  0.70593513    -0.17900
C305        C  0.38124595  0.73200897  0.67098012    -0.17000
C306        C  0.40461945  0.73563312  0.68180766     0.07000
C307        C  0.43158287  0.74062150  0.69498050     0.08900
C308        C  0.45382726  0.74565222  0.70698365    -0.17900
C309        C  0.50464661  0.98714441  0.99589812    -0.15000
C310        C  0.48849552  0.00490328  0.98164015    -0.30100
H311        H  0.02071300  0.97222992  0.98743949     0.14000
H312        H  0.47416117  0.52168622  0.99029424     0.14600
C313        C  0.99187449  0.62172089  0.80228479    -0.17000
C314        C  0.99436691  0.64456491  0.79002306     0.07000
C315        C  0.99785892  0.67163136  0.77607781     0.08900
C316        C  0.00087716  0.69552153  0.76527926    -0.17900
C317        C  0.00834859  0.80729359  0.76939672    -0.17000
C318        C  0.00979300  0.82940199  0.78229198     0.07000
C319        C  0.01147677  0.85555587  0.79708834     0.08900
C320        C  0.01241452  0.87846826  0.80902969    -0.17900
N321        N  0.48778297  0.06180035  0.84764238    -0.25800
N322        N  0.49359166  0.04647177  0.82732375    -0.33700
C323        C  0.49517480  0.06552688  0.80794040     0.02500
C324        C  0.49014346  0.09418377  0.81644972     0.08500
C325        C  0.48556968  0.09118626  0.84165839    -0.04600
H326        H  0.50043007  0.05906850  0.78916294     0.09200
H327        H  0.48177540  0.10907880  0.85474144     0.10400
Cu328      Cu  0.50105805  0.00075076  0.82671795     0.44200
Cu329      Cu  0.98548222  0.04192803  0.88259995     0.42000
Cu330      Cu  0.00513873  0.46276412  0.88513508     0.43900
N331        N  0.50779355  0.45503853  0.83016422    -0.33200
N332        N  0.50922852  0.44084972  0.85154525    -0.27500
C333        C  0.51188593  0.41109754  0.84739055    -0.03600
C334        C  0.51219936  0.40664369  0.82222555     0.08600
C335        C  0.50955962  0.43482908  0.81184465     0.02400
H336        H  0.51259752  0.39397623  0.86161523     0.10100
H337        H  0.50806409  0.44017565  0.79247124     0.09200
N338        N  0.99690171  0.48898210  0.91602665    -0.34700
N339        N  0.98900910  0.01718206  0.91510414    -0.26800
C340        C  0.98423113  0.02686431  0.93830934    -0.02100
C341        C  0.99027990  0.50399635  0.95456991     0.06500
C342        C  0.99859870  0.48027893  0.93969705     0.04600
H343        H  0.97700047  0.04915601  0.94311150     0.09700
H344        H  0.00493087  0.45812083  0.94557615     0.08600
N345        N  0.69853139  0.23960663  0.62641482    -0.25800
N346        N  0.71184282  0.23726117  0.64781184    -0.33700
C347        C  0.69063697  0.23752764  0.66609844     0.02500
C348        C  0.66277045  0.24012511  0.65569400     0.08500
C349        C  0.66851720  0.24141622  0.63056038    -0.04600
H350        H  0.69517335  0.23568064  0.68550196     0.09200
H351        H  0.65210205  0.24314239  0.61631071     0.10400
Cu352      Cu  0.75822883  0.23305758  0.65126603     0.44200
Cu353      Cu  0.72156002  0.23860863  0.59241445     0.42000
Cu354      Cu  0.80019202  0.21945427  0.59459895     0.43900
N355        N  0.80496243  0.22905311  0.64940725    -0.33200
N356        N  0.82022627  0.22370513  0.62869155    -0.27500
C357        C  0.84994105  0.22369019  0.63334594    -0.03600
C358        C  0.85347068  0.22924908  0.65812765     0.08600
C359        C  0.82459408  0.23256540  0.66779078     0.02400
H360        H  0.86767815  0.22067194  0.61957612     0.10100
H361        H  0.81834852  0.23782411  0.68664270     0.09200
N362        N  0.77688944  0.22311098  0.56205641    -0.34700
N363        N  0.74877744  0.23186191  0.56113759    -0.26800
C364        C  0.74123307  0.23422526  0.53736935    -0.02100
C365        C  0.76567901  0.22624587  0.52266165     0.06500
C366        C  0.78774326  0.21913112  0.53894161     0.04600
H367        H  0.71939579  0.24072128  0.53129131     0.09700
H368        H  0.81032532  0.21224744  0.53430471     0.08600
C369        C  0.50736653  0.28014981  0.75410555     0.87900
C370        C  0.98028859  0.27831524  0.73710854    -0.52300
C371        C  0.97930655  0.25307957  0.72273486     0.10900
C372        C  0.50567419  0.23211066  0.72656760     0.21800
C373        C  0.50521226  0.25051660  0.76884759    -0.53000
C374        C  0.50425081  0.22537045  0.75444773     0.11000
C375        C  0.53530222  0.27785460  0.73705355    -0.52500
C376        C  0.53452738  0.25271032  0.72263364     0.11500
H377        H  0.96308565  0.29503871  0.73689288     0.16100
H378        H  0.50492995  0.21155088  0.71489269     0.01800
H379        H  0.50419396  0.24949778  0.78885394     0.16400
H380        H  0.55418556  0.29443765  0.73663102     0.16200
C381        C  0.71654263  0.49215227  0.22489054     0.87900
C382        C  0.71913435  0.01962377  0.24177063    -0.52300
C383        C  0.74536718  0.02121000  0.25441753     0.10900
C384        C  0.76650364  0.49500200  0.24908818     0.21800
C385        C  0.74507300  0.49397783  0.20821564    -0.53000
C386        C  0.77120352  0.49554691  0.22087778     0.11000
C387        C  0.72022314  0.46478443  0.24170158    -0.52500
C388        C  0.74638535  0.46615508  0.25435333     0.11500
H389        H  0.70227903  0.03665665  0.24321514     0.16100
H390        H  0.78788333  0.49622478  0.25932706     0.01800
H391        H  0.74465950  0.49427180  0.18821742     0.16400
H392        H  0.70383024  0.44577953  0.24317706     0.16200
N393        N  0.55780046  0.47817928  0.12884670    -0.25800
N394        N  0.54238148  0.48360407  0.14945634    -0.33700
C395        C  0.56137138  0.48493635  0.16831868     0.02500
C396        C  0.59006747  0.48012987  0.15913864     0.08500
C397        C  0.58716759  0.47594284  0.13409583    -0.04600
H398        H  0.55486808  0.49000336  0.18715661     0.09200
H399        H  0.60512696  0.47257315  0.12059469     0.10400
Cu400      Cu  0.99674293  0.49139889  0.15096437     0.44200
Cu401      Cu  0.53825625  0.47720302  0.09440668     0.42000
Cu402      Cu  0.96068308  0.50219382  0.09323767     0.43900
N403        N  0.95141707  0.49959678  0.14833883    -0.33200
N404        N  0.93797802  0.50380858  0.12724836    -0.27500
C405        C  0.90825829  0.50706392  0.13190326    -0.03600
C406        C  0.90306553  0.50484033  0.15707939     0.08600
C407        C  0.93076817  0.50009077  0.16693856     0.02400
H408        H  0.89162152  0.50987308  0.11797376     0.10100
H409        H  0.93547964  0.49637592  0.18612595     0.09200
N410        N  0.98719030  0.49423243  0.06188797    -0.34700
N411        N  0.51464645  0.48364347  0.06230282    -0.26800
C412        C  0.52468664  0.47945098  0.03898446    -0.02100
C413        C  0.00278760  0.48828472  0.02315983     0.06500
C414        C  0.97929724  0.49750194  0.03830634     0.04600
H415        H  0.54656420  0.47107426  0.03391042     0.09700
H416        H  0.95778336  0.50539429  0.03267089     0.08600
N417        N  0.75804295  0.30418342  0.34850750    -0.25800
N418        N  0.76479781  0.29045153  0.32759266    -0.33700
C419        C  0.76716729  0.31119145  0.30930526     0.02500
C420        C  0.76167202  0.33917667  0.31925558     0.08500
C421        C  0.75592289  0.33396799  0.34407722    -0.04600
H422        H  0.77242737  0.30622985  0.29021103     0.09200
H423        H  0.75072681  0.35057934  0.35793776     0.10400
Cu424      Cu  0.77013043  0.24397572  0.32501758     0.44200
Cu425      Cu  0.75324989  0.28203928  0.38239119     0.42000
Cu426      Cu  0.77020990  0.20287989  0.38323634     0.43900
N427        N  0.77191484  0.19706133  0.32770524    -0.33200
N428        N  0.77198706  0.18216294  0.34889663    -0.27500
C429        C  0.77130822  0.15224751  0.34434477    -0.03600
C430        C  0.77086065  0.14819287  0.31915708     0.08600
C431        C  0.77122349  0.17696845  0.30913579     0.02400
H432        H  0.77023219  0.13477096  0.35837515     0.10100
H433        H  0.77008882  0.18286941  0.28984212     0.09200
N434        N  0.76295384  0.22805766  0.41499360    -0.34700
N435        N  0.75516942  0.25654650  0.41456744    -0.26800
C436        C  0.75030915  0.26587646  0.43784537    -0.02100
C437        C  0.75576414  0.24236180  0.45372202     0.06500
C438        C  0.76375082  0.21869092  0.43859992     0.04600
H439        H  0.74370833  0.28831303  0.44287053     0.09700
H440        H  0.76902871  0.19612137  0.44427011     0.08600
C441        C  0.87449166  0.50449528  0.17036556    -0.17000
C442        C  0.85111822  0.50313620  0.18237053     0.07000
C443        C  0.82397108  0.50068530  0.19670798     0.08700
C444        C  0.80040735  0.49828635  0.20840867    -0.17900
C445        C  0.61750285  0.48211465  0.17269506    -0.17000
C446        C  0.63998515  0.48457044  0.18468286     0.07000
C447        C  0.66608673  0.48777990  0.19897520     0.08900
C448        C  0.68856155  0.49021539  0.21097829    -0.17900
C449        C  0.76151599  0.36781081  0.30640941    -0.17000
C450        C  0.76065040  0.39166898  0.29554742     0.07000
C451        C  0.75825113  0.41912274  0.28231035     0.08900
C452        C  0.75430473  0.44152796  0.27019987    -0.17900
C453        C  0.75330596  0.04667276  0.26996958    -0.17000
C454        C  0.75880619  0.06912208  0.28195574     0.07000
C455        C  0.76407308  0.09629980  0.29522605     0.08900
C456        C  0.76766296  0.11986184  0.30619587    -0.17900
C457        C  0.76822219  0.22497662  0.49545264    -0.15000
C458        C  0.75256133  0.24285308  0.48092105    -0.30100
H459        H  0.78459894  0.21019568  0.48725354     0.14000
H460        H  0.73813541  0.25946549  0.48918825     0.14600
C461        C  0.63372802  0.24071662  0.66845083    -0.17000
C462        C  0.60971475  0.24146805  0.67959278     0.07000
C463        C  0.58214952  0.24322179  0.69338689     0.08900
C464        C  0.55957502  0.24624002  0.70605372    -0.17900
C465        C  0.88156483  0.23288315  0.67088523    -0.17000
C466        C  0.90496176  0.23642891  0.68169649     0.07000
C467        C  0.93196243  0.24121460  0.69486273     0.08900
C468        C  0.95422009  0.24604858  0.70689440    -0.17900
C469        C  0.00443401  0.48712134  0.99595260    -0.15000
C470        C  0.98826991  0.50498611  0.98178470    -0.30100
H471        H  0.52034907  0.47211348  0.98741085     0.14000
H472        H  0.97419388  0.02149447  0.99006311     0.14600
C473        C  0.49205301  0.12166613  0.80210924    -0.17000
C474        C  0.49454675  0.14445901  0.78979226     0.07000
C475        C  0.49805186  0.17148442  0.77580748     0.08900
C476        C  0.50108481  0.19538997  0.76504087    -0.17900
C477        C  0.50849851  0.30710747  0.76978561    -0.17000
C478        C  0.50982563  0.32919790  0.78270261     0.07000
C479        C  0.51136588  0.35539926  0.79744437     0.08900
C480        C  0.51220725  0.37836284  0.80931929    -0.17900
N481        N  0.48724348  0.56171737  0.84772232    -0.25800
N482        N  0.49352819  0.54648001  0.82744746    -0.33700
C483        C  0.49533690  0.56559328  0.80809863     0.02500
C484        C  0.48994853  0.59418963  0.81658014     0.08500
C485        C  0.48493080  0.59109278  0.84173834    -0.04600
H486        H  0.50095415  0.55921506  0.78936706     0.09200
H487        H  0.48076634  0.60892071  0.85479924     0.10400
Cu488      Cu  0.50118575  0.50077549  0.82683989     0.44200
Cu489      Cu  0.98453984  0.54183134  0.88268951     0.42000
Cu490      Cu  0.00612978  0.96283136  0.88498009     0.43900
N491        N  0.50792983  0.95508221  0.83000343    -0.33200
N492        N  0.50984469  0.94092801  0.85135441    -0.27500
C493        C  0.51260953  0.91119580  0.84715249    -0.03600
C494        C  0.51248796  0.90673236  0.82199053     0.08600
C495        C  0.50948309  0.93488388  0.81166470     0.02400
H496        H  0.51368068  0.89408876  0.86135166     0.10100
H497        H  0.50760718  0.94021378  0.79232238     0.09200
N498        N  0.99779799  0.98902048  0.91589643    -0.34700
N499        N  0.98813785  0.51715156  0.91524073    -0.26800
C500        C  0.98359136  0.52689403  0.93846105    -0.02100
C501        C  0.99078905  0.00394256  0.95442897     0.06500
C502        C  0.99928478  0.98026729  0.93957477     0.04600
H503        H  0.97646777  0.54921856  0.94327949     0.09700
H504        H  0.00554910  0.95809283  0.94547050     0.08600
N505        N  0.69826499  0.73932272  0.62648158    -0.25800
N506        N  0.71155263  0.73674438  0.64786975    -0.33700
C507        C  0.69031654  0.73673509  0.66614740     0.02500
C508        C  0.66245519  0.73938603  0.65574577     0.08500
C509        C  0.66823755  0.74100117  0.63062673    -0.04600
H510        H  0.69483450  0.73470474  0.68554139     0.09200
H511        H  0.65184105  0.74291058  0.61638340     0.10400
Cu512      Cu  0.75794720  0.73261850  0.65133669     0.44200
Cu513      Cu  0.72132196  0.73890431  0.59245814     0.42000
Cu514      Cu  0.79990587  0.71968488  0.59459412     0.43900
N515        N  0.80466049  0.72848124  0.64946986    -0.33200
N516        N  0.81992559  0.72336237  0.62871137    -0.27500
C517        C  0.84963146  0.72319284  0.63336625    -0.03600
C518        C  0.85315179  0.72840732  0.65819727     0.08600
C519        C  0.82428236  0.73168875  0.66788551     0.02400
H520        H  0.86737135  0.72035224  0.61956499     0.10100
H521        H  0.81804149  0.73676122  0.68677512     0.09200
N522        N  0.77669467  0.72372752  0.56206197    -0.34700
N523        N  0.74860368  0.73253573  0.56113792    -0.26800
C524        C  0.74112183  0.73502812  0.53735799    -0.02100
C525        C  0.76558741  0.72704609  0.52266701     0.06500
C526        C  0.78759020  0.71982181  0.53895635     0.04600
H527        H  0.71929126  0.74151735  0.53125834     0.09700
H528        H  0.81014083  0.71283645  0.53433503     0.08600
C529        C  0.50714748  0.78021449  0.75387441     0.87900
C530        C  0.97997847  0.77821254  0.73693826    -0.52300
C531        C  0.97894793  0.75284376  0.72271572     0.10900
C532        C  0.50534620  0.73193043  0.72662224     0.21800
C533        C  0.50505689  0.75070308  0.76878784    -0.53000
C534        C  0.50403367  0.72542918  0.75453656     0.11000
C535        C  0.53501290  0.77777746  0.73676479    -0.52500
C536        C  0.53418190  0.75250143  0.72249831     0.11500
H537        H  0.96276834  0.79492553  0.73666806     0.16100
H538        H  0.50455711  0.71126737  0.71506874     0.01800
H539        H  0.50411745  0.74985746  0.78879907     0.16400
H540        H  0.55390302  0.79435302  0.73620831     0.16200
C541        C  0.71634934  0.99207383  0.22480053     0.87900
C542        C  0.71946796  0.51982041  0.24172056    -0.52300
C543        C  0.74571916  0.52139634  0.25434296     0.10900
C544        C  0.76627457  0.99495676  0.24904396     0.21800
C545        C  0.74490020  0.99413586  0.20815258    -0.53000
C546        C  0.77101030  0.99571482  0.22084254     0.11000
C547        C  0.72012841  0.96460675  0.24148237    -0.52500
C548        C  0.74627260  0.96600885  0.25415677     0.11500
H549        H  0.70268907  0.53693545  0.24308996     0.16100
H550        H  0.78763850  0.99618973  0.25930461     0.01800
H551        H  0.74451476  0.99454142  0.18815449     0.16400
H552        H  0.70381453  0.94552765  0.24286294     0.16200
N553        N  0.55752497  0.97819667  0.12883813    -0.25800
N554        N  0.54214203  0.98373474  0.14943881    -0.33700
C555        C  0.56114930  0.98505250  0.16829124     0.02500
C556        C  0.58981895  0.98011446  0.15910675     0.08500
C557        C  0.58688271  0.97586678  0.13407511    -0.04600
H558        H  0.55468069  0.99019458  0.18712188     0.09200
H559        H  0.60481477  0.97240045  0.12057076     0.10400
Cu560      Cu  0.99652938  0.99164060  0.15086661     0.44200
Cu561      Cu  0.53792840  0.97723175  0.09443462     0.42000
Cu562      Cu  0.96028687  0.00204968  0.09306534     0.43900
N563        N  0.95116900  0.99967790  0.14820638    -0.33200
N564        N  0.93766294  0.00371177  0.12711764    -0.27500
C565        C  0.90794067  0.00691386  0.13180678    -0.03600
C566        C  0.90282048  0.00484592  0.15699835     0.08600
C567        C  0.93056310  0.00023847  0.16683272     0.02400
H568        H  0.89125979  0.00961504  0.11789533     0.10100
H569        H  0.93533854  0.99668652  0.18602879     0.09200
N570        N  0.98694765  0.99418507  0.06177082    -0.34700
N571        N  0.51443648  0.98368340  0.06228925    -0.26800
C572        C  0.52462841  0.97954766  0.03900951    -0.02100
C573        C  0.00278837  0.98829926  0.02309287     0.06500
C574        C  0.97917882  0.99744278  0.03815396     0.04600
H575        H  0.54656049  0.97123912  0.03401820     0.09700
H576        H  0.95767443  0.00527273  0.03243618     0.08600
N577        N  0.75954770  0.80434223  0.34827587    -0.25800
N578        N  0.76655748  0.79059074  0.32742717    -0.33700
C579        C  0.76874523  0.81125125  0.30907773     0.02500
C580        C  0.76286275  0.83919413  0.31893340     0.08500
C581        C  0.75707694  0.83405147  0.34375017    -0.04600
H582        H  0.77408386  0.80625505  0.29000323     0.09200
H583        H  0.75156903  0.85064834  0.35753827     0.10400
Cu584      Cu  0.77217032  0.74416068  0.32501506     0.44200
Cu585      Cu  0.75467551  0.78235183  0.38218235     0.42000
Cu586      Cu  0.77020625  0.70290781  0.38331181     0.43900
N587        N  0.77327949  0.69720901  0.32774759    -0.33200
N588        N  0.77245635  0.68223782  0.34893748    -0.27500
C589        C  0.77137065  0.65232781  0.34432780    -0.03600
C590        C  0.77160784  0.64835840  0.31911110     0.08600
C591        C  0.77279232  0.67717819  0.30913202     0.02400
H592        H  0.76957915  0.63481084  0.35832006     0.10100
H593        H  0.77232066  0.68316950  0.28981615     0.09200
N594        N  0.76323554  0.72834875  0.41500135    -0.34700
N595        N  0.75606005  0.75701765  0.41444667    -0.26800
C596        C  0.75130735  0.76658934  0.43766865    -0.02100
C597        C  0.75618183  0.74302864  0.45365697     0.06500
C598        C  0.76373017  0.71908792  0.43865322     0.04600
H599        H  0.74515514  0.78920561  0.44257657     0.09700
H600        H  0.76851169  0.69642534  0.44443632     0.08600
C601        C  0.87428926  0.00458614  0.17033951    -0.17000
C602        C  0.85094497  0.00330878  0.18238196     0.07000
C603        C  0.82380751  0.00092791  0.19673171     0.08700
C604        C  0.80023136  0.99853515  0.20841294    -0.17900
C605        C  0.61727744  0.98205505  0.17263616    -0.17000
C606        C  0.63978732  0.98448702  0.18459319     0.07000
C607        C  0.66591087  0.98768408  0.19886198     0.08900
C608        C  0.68838653  0.99012106  0.21086457    -0.17900
C609        C  0.76232821  0.86773159  0.30601649    -0.17000
C610        C  0.76115490  0.89154775  0.29515823     0.07000
C611        C  0.75844173  0.91896571  0.28196666     0.08900
C612        C  0.75429739  0.94135520  0.26991175    -0.17900
C613        C  0.75376678  0.54695229  0.26977278    -0.17000
C614        C  0.75932146  0.56944081  0.28170364     0.07000
C615        C  0.76464673  0.59660392  0.29499187     0.08900
C616        C  0.76830383  0.62010929  0.30603571    -0.17900
C617        C  0.76816074  0.72564006  0.49547062    -0.15000
C618        C  0.75286580  0.74372407  0.48084626    -0.30100
H619        H  0.78431736  0.71056527  0.48735141     0.14000
H620        H  0.73870905  0.76062733  0.48902421     0.14600
C621        C  0.63340005  0.73993452  0.66848789    -0.17000
C622        C  0.60936253  0.74074788  0.67958611     0.07000
C623        C  0.58177129  0.74265977  0.69331841     0.08900
C624        C  0.55919553  0.74584340  0.70594504    -0.17900
C625        C  0.88123998  0.73198406  0.67096196    -0.17000
C626        C  0.90461369  0.73560900  0.68178888     0.07000
C627        C  0.93157644  0.74060001  0.69496179     0.08900
C628        C  0.95381950  0.74563414  0.70696561    -0.17900
C629        C  0.00462985  0.98712406  0.99589247    -0.15000
C630        C  0.98847833  0.00488087  0.98163310    -0.30100
H631        H  0.52073021  0.97225158  0.98744414     0.14000
H632        H  0.97415950  0.52168897  0.99029572     0.14600
C633        C  0.49187546  0.62171957  0.80228624    -0.17000
C634        C  0.49436920  0.64456443  0.79002578     0.07000
C635        C  0.49786362  0.67163230  0.77608280     0.08900
C636        C  0.50088441  0.69552402  0.76528693    -0.17900
C637        C  0.50836700  0.80729493  0.76941883    -0.17000
C638        C  0.50981193  0.82940233  0.78231514     0.07000
C639        C  0.51149455  0.85555659  0.79711104     0.08900
C640        C  0.51243025  0.87847021  0.80905079    -0.17900
loop_ 
_geom_bond_atom_site_label_1 
_geom_bond_atom_site_label_2 
_geom_bond_distance 
_geom_bond_site_symmetry_2 
_ccdc_geom_bond_type 
N1            N2   1.323       .  A
N1            C5   1.348       .  A
N1         Cu329   2.087       .  S
N2            C3   1.344       .  A
N2           Cu8   2.066   1_655  S
C3            C4   1.377       .  A
C3            H6   1.082   1_655  S
C4            C5   1.383       .  A
C4          C153   1.439       .  S
C5            H7   1.082       .  S
Cu8         N171   2.066   1_545  S
Cu9          N19   2.087       .  S
Cu9         N321   2.087       .  S
Cu10         N18   2.077       .  S
Cu10        N332   2.077       .  S
N11          N12   1.322       .  A
N11          C15   1.344       .  A
N11        Cu168   2.067       .  S
N12          C13   1.347       .  A
N12        Cu330   2.077       .  S
C13          C14   1.382       .  A
C13          H16   1.082       .  S
C14          C15   1.378       .  A
C14         C160   1.437       .  S
C15          H17   1.082       .  S
N18         N179   1.324       .  A
N18          C22   1.346       .  A
N19         N178   1.324   1_545  A
N19          C20   1.347       .  A
C20         C181   1.384       .  A
C20          H23   1.082       .  S
C21          C22   1.384       .  A
C21         C180   1.384       .  A
C21         C150   1.479       .  S
C22          H24   1.082       .  S
N25          N26   1.324       .  A
N25          C29   1.348       .  A
N25         Cu33   2.085       .  S
N26          C27   1.347       .  A
N26         Cu32   2.085       .  S
C27          C28   1.382       .  A
C27          H30   1.082       .  S
C28          C29   1.382       .  A
C28         C141   1.444       .  S
C29          H31   1.082       .  S
Cu32         N35   2.085       .  S
Cu33         N43   2.085       .  S
Cu34         N36   2.082       .  S
Cu34         N42   2.082       .  S
N35          N36   1.323       .  A
N35          C39   1.348       .  A
N36          C37   1.347       .  A
C37          C38   1.381       .  A
C37          H40   1.082       .  S
C38          C39   1.383       .  A
C38         C145   1.445       .  S
C39          H41   1.082       .  S
N42          N43   1.323       .  A
N42          C46   1.346       .  A
N43          C44   1.348       .  A
C44          C45   1.386       .  A
C44          H47   1.082       .  S
C45          C46   1.383       .  A
C45         C137   1.480       .  S
C46          H48   1.082       .  S
C49          C55   1.531       .  S
C49          C53   1.531       .  S
C49         C370   1.534   1_455  S
C49         C157   1.469       .  S
C50         C369   1.534       .  S
C50          H57   1.087       .  S
C50          C51   1.365       .  D
C51         C372   1.543       .  S
C51         C148   1.448       .  S
C52          C56   1.545       .  S
C52          C54   1.541       .  S
C52         C371   1.543   1_455  S
C52          H58   1.111       .  S
C53          H59   1.087       .  S
C53          C54   1.363       .  D
C54         C156   1.443       .  S
C55          H60   1.087       .  S
C55          C56   1.363       .  D
C56         C144   1.448       .  S
C61          C67   1.531       .  S
C61          C65   1.532       .  S
C61         C222   1.534       .  S
C61         C128   1.470       .  S
C62         C221   1.534   1_545  S
C62          H69   1.087       .  S
C62          C63   1.366       .  D
C63         C224   1.542   1_545  S
C63         C133   1.448       .  S
C64          C68   1.544       .  S
C64          C66   1.540       .  S
C64         C223   1.543       .  S
C64          H70   1.111       .  S
C65          H71   1.087       .  S
C65          C66   1.363       .  D
C66         C124   1.442       .  S
C67          H72   1.087       .  S
C67          C68   1.363       .  D
C68         C132   1.448       .  S
N73          N74   1.323       .  A
N73          C77   1.348       .  A
N73         Cu81   2.084       .  S
N74          C75   1.344       .  A
N74        Cu400   2.065   1_455  S
C75          C76   1.378       .  A
C75          H78   1.082       .  S
C76          C77   1.382       .  A
C76         C125   1.438       .  S
C77          H79   1.082       .  S
Cu80         N83   2.065       .  S
Cu80        N394   2.065       .  S
Cu81         N91   2.084       .  S
Cu82         N84   2.080       .  S
Cu82         N90   2.080       .  S
N83          N84   1.323       .  A
N83          C87   1.344       .  A
N84          C85   1.347       .  A
C85          C86   1.382       .  A
C85          H88   1.082       .  S
C86          C87   1.377       .  A
C86         C121   1.438       .  S
C87          H89   1.082       .  S
N90         N411   1.324       .  A
N90          C94   1.346       .  A
N91         N410   1.324   1_455  A
N91          C92   1.346       .  A
C92         C413   1.383       .  A
C92          H95   1.082       .  S
C93          C94   1.385       .  A
C93         C412   1.383       .  A
C93         C149   1.479   1_554  S
C94          H96   1.082       .  S
N97          N98   1.324       .  A
N97         C101   1.347       .  A
N97        Cu105   2.082       .  S
N98          C99   1.348       .  A
N98        Cu104   2.086       .  S
C99         C100   1.383       .  A
C99         H102   1.082       .  S
C100        C101   1.381       .  A
C100        C129   1.444       .  S
C101        H103   1.082       .  S
Cu104       N107   2.086       .  S
Cu105       N115   2.082       .  S
Cu106       N108   2.083       .  S
Cu106       N114   2.083       .  S
N107        N108   1.324       .  A
N107        C111   1.348       .  A
N108        C109   1.347       .  A
C109        C110   1.381       .  A
C109        H112   1.082       .  S
C110        C111   1.382       .  A
C110        C136   1.444       .  S
C111        H113   1.082       .  S
N114        N115   1.323       .  A
N114        C118   1.348       .  A
N115        C116   1.346       .  A
C116        C117   1.383       .  A
C116        H119   1.082       .  S
C117        C118   1.386       .  A
C117        C138   1.480       .  S
C118        H120   1.082       .  S
C121        C122   1.206       .  T
C122        C123   1.413       .  S
C123        C124   1.206       .  T
C125        C126   1.207       .  T
C126        C127   1.413       .  S
C127        C128   1.207       .  T
C129        C130   1.210       .  T
C130        C131   1.419       .  S
C131        C132   1.210       .  T
C133        C134   1.210       .  T
C134        C135   1.419       .  S
C135        C136   1.210       .  T
C137        H139   1.086       .  S
C137        C138   1.344       .  D
C138        H140   1.086       .  S
C141        C142   1.210       .  T
C142        C143   1.419       .  S
C143        C144   1.210       .  T
C145        C146   1.210       .  T
C146        C147   1.419       .  S
C147        C148   1.210       .  T
C149        H471   1.086       .  S
C149        C150   1.345       .  D
C150        H312   1.086       .  S
H151        C469   1.086       .  S
H152        C310   1.086       .  S
C153        C154   1.207       .  T
C154        C155   1.414       .  S
C155        C156   1.207   1_655  T
C157        C158   1.206       .  T
C158        C159   1.412       .  S
C159        C160   1.206       .  T
N161        N162   1.323       .  A
N161        C165   1.348       .  A
N161       Cu489   2.088       .  S
N162        C163   1.344       .  A
N162       Cu168   2.067   1_655  S
C163        C164   1.378       .  A
C163        H166   1.082   1_655  S
C164        C165   1.383       .  A
C164        C313   1.440       .  S
C165        H167   1.082       .  S
Cu169       N481   2.088       .  S
Cu169       N179   2.088       .  S
Cu170       N492   2.078       .  S
Cu170       N178   2.078       .  S
N171        N172   1.322       .  A
N171        C175   1.344       .  A
N172        C173   1.347       .  A
N172       Cu490   2.078       .  S
C173        C174   1.382       .  A
C173        H176   1.082       .  S
C174        C175   1.378       .  A
C174        C320   1.438       .  S
C175        H177   1.082       .  S
N178        C182   1.346       .  A
N179        C180   1.347       .  A
C180        H183   1.082       .  S
C181        C182   1.384   1_545  A
C181        C310   1.479       .  S
C182        H184   1.082       .  S
N185        N186   1.324       .  A
N185        C189   1.348       .  A
N185       Cu193   2.086       .  S
N186        C187   1.347       .  A
N186       Cu192   2.085       .  S
C187        C188   1.382       .  A
C187        H190   1.082       .  S
C188        C189   1.382       .  A
C188        C301   1.444       .  S
C189        H191   1.082       .  S
Cu192       N195   2.085       .  S
Cu193       N203   2.085       .  S
Cu194       N196   2.081       .  S
Cu194       N202   2.081       .  S
N195        N196   1.323       .  A
N195        C199   1.348       .  A
N196        C197   1.347       .  A
C197        C198   1.381       .  A
C197        H200   1.082       .  S
C198        C199   1.382       .  A
C198        C305   1.444       .  S
C199        H201   1.082       .  S
N202        N203   1.323       .  A
N202        C206   1.346       .  A
N203        C204   1.348       .  A
C204        C205   1.387       .  A
C204        H207   1.082       .  S
C205        C206   1.382       .  A
C205        C297   1.480       .  S
C206        H208   1.082       .  S
C209        C530   1.534   1_455  S
C209        C215   1.531       .  S
C209        C213   1.532       .  S
C209        C317   1.469       .  S
C210        C529   1.534       .  S
C210        H217   1.087       .  S
C210        C211   1.366       .  D
C211        C532   1.543       .  S
C211        C308   1.448       .  S
C212        C531   1.543   1_455  S
C212        C216   1.544       .  S
C212        C214   1.541       .  S
C212        H218   1.111       .  S
C213        H219   1.087       .  S
C213        C214   1.363       .  D
C214        C316   1.444       .  S
C215        H220   1.087       .  S
C215        C216   1.363       .  D
C216        C304   1.448       .  S
C221        C227   1.531       .  S
C221        C225   1.532       .  S
C221        C288   1.470       .  S
C222        H229   1.087       .  S
C222        C223   1.366       .  D
C223        C293   1.448       .  S
C224        C228   1.543       .  S
C224        C226   1.540       .  S
C224        H230   1.111       .  S
C225        H231   1.087       .  S
C225        C226   1.363       .  D
C226        C284   1.442       .  S
C227        H232   1.087       .  S
C227        C228   1.363       .  D
C228        C292   1.447       .  S
N233        N234   1.323       .  A
N233        C237   1.348       .  A
N233       Cu241   2.083       .  S
N234        C235   1.344       .  A
N234       Cu560   2.065   1_455  S
C235        C236   1.378       .  A
C235        H238   1.082       .  S
C236        C237   1.382       .  A
C236        C285   1.439       .  S
C237        H239   1.082       .  S
Cu240       N554   2.065       .  S
Cu240       N243   2.065       .  S
Cu241       N251   2.084       .  S
Cu242       N244   2.081       .  S
Cu242       N250   2.081   1_545  S
N243        N244   1.323   1_565  A
N243        C247   1.344   1_565  A
N244        C245   1.347       .  A
C245        C246   1.382       .  A
C245        H248   1.082       .  S
C246        C247   1.377       .  A
C246        C281   1.438       .  S
C247        H249   1.082   1_545  S
N250        N571   1.324       .  A
N250        C254   1.347       .  A
N251        N570   1.324   1_455  A
N251        C252   1.346       .  A
C252        C573   1.383       .  A
C252        H255   1.082       .  S
C253        C572   1.383       .  A
C253        C254   1.385       .  A
C253        C309   1.478   1_554  S
C254        H256   1.082   1_565  S
N257        N258   1.324       .  A
N257        C261   1.347       .  A
N257       Cu265   2.080       .  S
N258        C259   1.348       .  A
N258       Cu264   2.086       .  S
C259        C260   1.383       .  A
C259        H262   1.082       .  S
C260        C261   1.381       .  A
C260        C289   1.444       .  S
C261        H263   1.082       .  S
Cu264       N267   2.086       .  S
Cu265       N275   2.080       .  S
Cu266       N268   2.084       .  S
Cu266       N274   2.084       .  S
N267        N268   1.324       .  A
N267        C271   1.348       .  A
N268        C269   1.347       .  A
C269        C270   1.381       .  A
C269        H272   1.082       .  S
C270        C271   1.382       .  A
C270        C296   1.444       .  S
C271        H273   1.082       .  S
N274        N275   1.323       .  A
N274        C278   1.348       .  A
N275        C276   1.346       .  A
C276        C277   1.383       .  A
C276        H279   1.082       .  S
C277        C278   1.387       .  A
C277        C298   1.480       .  S
C278        H280   1.082       .  S
C281        C282   1.206       .  T
C282        C283   1.413       .  S
C283        C284   1.206   1_545  T
C285        C286   1.207       .  T
C286        C287   1.413       .  S
C287        C288   1.207       .  T
C289        C290   1.210       .  T
C290        C291   1.418       .  S
C291        C292   1.209       .  T
C293        C294   1.210       .  T
C294        C295   1.419       .  S
C295        C296   1.210       .  T
C297        H299   1.086       .  S
C297        C298   1.344       .  D
C298        H300   1.086       .  S
C301        C302   1.210       .  T
C302        C303   1.419       .  S
C303        C304   1.210       .  T
C305        C306   1.210       .  T
C306        C307   1.419       .  S
C307        C308   1.210       .  T
C309        H631   1.086       .  S
C309        C310   1.345   1_565  D
H311        C629   1.086       .  S
C313        C314   1.207       .  T
C314        C315   1.415       .  S
C315        C316   1.207   1_655  T
C317        C318   1.206       .  T
C318        C319   1.413       .  S
C319        C320   1.206       .  T
N321        N322   1.323       .  A
N321        C325   1.348       .  A
N322        C323   1.344       .  A
N322       Cu328   2.066       .  S
C323        C324   1.377       .  A
C323        H326   1.082       .  S
C324        C325   1.383       .  A
C324        C473   1.439       .  S
C325        H327   1.082       .  S
Cu328       N491   2.066   1_545  S
Cu329       N339   2.087       .  S
Cu330       N338   2.077   1_455  S
N331        N332   1.322       .  A
N331        C335   1.344       .  A
N331       Cu488   2.067       .  S
N332        C333   1.347       .  A
C333        C334   1.382       .  A
C333        H336   1.082       .  S
C334        C335   1.378       .  A
C334        C480   1.437       .  S
C335        H337   1.082       .  S
N338        N499   1.324       .  A
N338        C342   1.346       .  A
N339        N498   1.324   1_545  A
N339        C340   1.347       .  A
C340        C501   1.384       .  A
C340        H343   1.082       .  S
C341        C500   1.384       .  A
C341        C342   1.384       .  A
C341        C470   1.479       .  S
C342        H344   1.082   1_655  S
N345        N346   1.324       .  A
N345        C349   1.348       .  A
N345       Cu353   2.085       .  S
N346        C347   1.347       .  A
N346       Cu352   2.085       .  S
C347        C348   1.382       .  A
C347        H350   1.082       .  S
C348        C349   1.382       .  A
C348        C461   1.444       .  S
C349        H351   1.082       .  S
Cu352       N355   2.085       .  S
Cu353       N363   2.085       .  S
Cu354       N356   2.082       .  S
Cu354       N362   2.082       .  S
N355        N356   1.323       .  A
N355        C359   1.348       .  A
N356        C357   1.347       .  A
C357        C358   1.381       .  A
C357        H360   1.082       .  S
C358        C359   1.383       .  A
C358        C465   1.445       .  S
C359        H361   1.082       .  S
N362        N363   1.323       .  A
N362        C366   1.346       .  A
N363        C364   1.348       .  A
C364        C365   1.386       .  A
C364        H367   1.082       .  S
C365        C366   1.383       .  A
C365        C457   1.480       .  S
C366        H368   1.082       .  S
C369        C375   1.531       .  S
C369        C373   1.531       .  S
C369        C477   1.469       .  S
C370        H377   1.087       .  S
C370        C371   1.365       .  D
C371        C468   1.448       .  S
C372        C376   1.545       .  S
C372        C374   1.541       .  S
C372        H378   1.111       .  S
C373        H379   1.087       .  S
C373        C374   1.363       .  D
C374        C476   1.443       .  S
C375        H380   1.087       .  S
C375        C376   1.363       .  D
C376        C464   1.448       .  S
C381        C542   1.534       .  S
C381        C387   1.531       .  S
C381        C385   1.532       .  S
C381        C448   1.470       .  S
C382        C541   1.534   1_545  S
C382        H389   1.087       .  S
C382        C383   1.366       .  D
C383        C544   1.542   1_545  S
C383        C453   1.448       .  S
C384        C543   1.543       .  S
C384        C388   1.544       .  S
C384        C386   1.540       .  S
C384        H390   1.111       .  S
C385        H391   1.087       .  S
C385        C386   1.363       .  D
C386        C444   1.442       .  S
C387        H392   1.087       .  S
C387        C388   1.363       .  D
C388        C452   1.448       .  S
N393        N394   1.323       .  A
N393        C397   1.348       .  A
N393       Cu401   2.084       .  S
N394        C395   1.344       .  A
C395        C396   1.378       .  A
C395        H398   1.082       .  S
C396        C397   1.382       .  A
C396        C445   1.438       .  S
C397        H399   1.082       .  S
Cu400       N403   2.065       .  S
Cu401       N411   2.084       .  S
Cu402       N404   2.080       .  S
Cu402       N410   2.080       .  S
N403        N404   1.323       .  A
N403        C407   1.344       .  A
N404        C405   1.347       .  A
C405        C406   1.382       .  A
C405        H408   1.082       .  S
C406        C407   1.377       .  A
C406        C441   1.438       .  S
C407        H409   1.082       .  S
N410        C414   1.346       .  A
N411        C412   1.346       .  A
C412        H415   1.082       .  S
C413        C414   1.385   1_455  A
C413        C469   1.479   1_554  S
C414        H416   1.082       .  S
N417        N418   1.324       .  A
N417        C421   1.347       .  A
N417       Cu425   2.082       .  S
N418        C419   1.348       .  A
N418       Cu424   2.086       .  S
C419        C420   1.383       .  A
C419        H422   1.082       .  S
C420        C421   1.381       .  A
C420        C449   1.444       .  S
C421        H423   1.082       .  S
Cu424       N427   2.086       .  S
Cu425       N435   2.082       .  S
Cu426       N428   2.083       .  S
Cu426       N434   2.083       .  S
N427        N428   1.324       .  A
N427        C431   1.348       .  A
N428        C429   1.347       .  A
C429        C430   1.381       .  A
C429        H432   1.082       .  S
C430        C431   1.382       .  A
C430        C456   1.444       .  S
C431        H433   1.082       .  S
N434        N435   1.323       .  A
N434        C438   1.348       .  A
N435        C436   1.346       .  A
C436        C437   1.383       .  A
C436        H439   1.082       .  S
C437        C438   1.386       .  A
C437        C458   1.480       .  S
C438        H440   1.082       .  S
C441        C442   1.206       .  T
C442        C443   1.413       .  S
C443        C444   1.206       .  T
C445        C446   1.207       .  T
C446        C447   1.413       .  S
C447        C448   1.207       .  T
C449        C450   1.210       .  T
C450        C451   1.419       .  S
C451        C452   1.210       .  T
C453        C454   1.210       .  T
C454        C455   1.419       .  S
C455        C456   1.210       .  T
C457        H459   1.086       .  S
C457        C458   1.344       .  D
C458        H460   1.086       .  S
C461        C462   1.210       .  T
C462        C463   1.419       .  S
C463        C464   1.210       .  T
C465        C466   1.210       .  T
C466        C467   1.419       .  S
C467        C468   1.210       .  T
C469        C470   1.345   1_455  D
C470        H632   1.086       .  S
H472        C630   1.086       .  S
C473        C474   1.207       .  T
C474        C475   1.414       .  S
C475        C476   1.207       .  T
C477        C478   1.206       .  T
C478        C479   1.412       .  S
C479        C480   1.206       .  T
N481        N482   1.323       .  A
N481        C485   1.348       .  A
N482        C483   1.344       .  A
N482       Cu488   2.067       .  S
C483        C484   1.378       .  A
C483        H486   1.082       .  S
C484        C485   1.383       .  A
C484        C633   1.440       .  S
C485        H487   1.082       .  S
Cu489       N499   2.088       .  S
Cu490       N498   2.078   1_455  S
N491        N492   1.322       .  A
N491        C495   1.344       .  A
N492        C493   1.347       .  A
C493        C494   1.382       .  A
C493        H496   1.082       .  S
C494        C495   1.378       .  A
C494        C640   1.438       .  S
C495        H497   1.082       .  S
N498        C502   1.346       .  A
N499        C500   1.347       .  A
C500        H503   1.082       .  S
C501        C502   1.384   1_545  A
C501        C630   1.479       .  S
C502        H504   1.082   1_655  S
N505        N506   1.324       .  A
N505        C509   1.348       .  A
N505       Cu513   2.086       .  S
N506        C507   1.347       .  A
N506       Cu512   2.085       .  S
C507        C508   1.382       .  A
C507        H510   1.082       .  S
C508        C509   1.382       .  A
C508        C621   1.444       .  S
C509        H511   1.082       .  S
Cu512       N515   2.085       .  S
Cu513       N523   2.085       .  S
Cu514       N516   2.081       .  S
Cu514       N522   2.081       .  S
N515        N516   1.323       .  A
N515        C519   1.348       .  A
N516        C517   1.347       .  A
C517        C518   1.381       .  A
C517        H520   1.082       .  S
C518        C519   1.382       .  A
C518        C625   1.444       .  S
C519        H521   1.082       .  S
N522        N523   1.323       .  A
N522        C526   1.346       .  A
N523        C524   1.348       .  A
C524        C525   1.387       .  A
C524        H527   1.082       .  S
C525        C526   1.382       .  A
C525        C617   1.480       .  S
C526        H528   1.082       .  S
C529        C535   1.531       .  S
C529        C533   1.532       .  S
C529        C637   1.469       .  S
C530        H537   1.087       .  S
C530        C531   1.366       .  D
C531        C628   1.448       .  S
C532        C536   1.544       .  S
C532        C534   1.541       .  S
C532        H538   1.111       .  S
C533        H539   1.087       .  S
C533        C534   1.363       .  D
C534        C636   1.444       .  S
C535        H540   1.087       .  S
C535        C536   1.363       .  D
C536        C624   1.448       .  S
C541        C547   1.531       .  S
C541        C545   1.532       .  S
C541        C608   1.470       .  S
C542        H549   1.087       .  S
C542        C543   1.366       .  D
C543        C613   1.448       .  S
C544        C548   1.543       .  S
C544        C546   1.540       .  S
C544        H550   1.111       .  S
C545        H551   1.087       .  S
C545        C546   1.363       .  D
C546        C604   1.442       .  S
C547        H552   1.087       .  S
C547        C548   1.363       .  D
C548        C612   1.447       .  S
N553        N554   1.323       .  A
N553        C557   1.347       .  A
N553       Cu561   2.083       .  S
N554        C555   1.344       .  A
C555        C556   1.378       .  A
C555        H558   1.082       .  S
C556        C557   1.382       .  A
C556        C605   1.439       .  S
C557        H559   1.082       .  S
Cu560       N563   2.065       .  S
Cu561       N571   2.083       .  S
Cu562       N564   2.081       .  S
Cu562       N570   2.081   1_545  S
N563        N564   1.323   1_565  A
N563        C567   1.344   1_565  A
N564        C565   1.347       .  A
C565        C566   1.382       .  A
C565        H568   1.082       .  S
C566        C567   1.377       .  A
C566        C601   1.438       .  S
C567        H569   1.082   1_545  S
N570        C574   1.347       .  A
N571        C572   1.346       .  A
C572        H575   1.082       .  S
C573        C574   1.385   1_455  A
C573        C629   1.478   1_554  S
C574        H576   1.082   1_565  S
N577        N578   1.324       .  A
N577        C581   1.347       .  A
N577       Cu585   2.080       .  S
N578        C579   1.348       .  A
N578       Cu584   2.086       .  S
C579        C580   1.383       .  A
C579        H582   1.082       .  S
C580        C581   1.381       .  A
C580        C609   1.444       .  S
C581        H583   1.082       .  S
Cu584       N587   2.086       .  S
Cu585       N595   2.080       .  S
Cu586       N588   2.084       .  S
Cu586       N594   2.084       .  S
N587        N588   1.324       .  A
N587        C591   1.348       .  A
N588        C589   1.347       .  A
C589        C590   1.381       .  A
C589        H592   1.082       .  S
C590        C591   1.382       .  A
C590        C616   1.444       .  S
C591        H593   1.082       .  S
N594        N595   1.323       .  A
N594        C598   1.348       .  A
N595        C596   1.346       .  A
C596        C597   1.383       .  A
C596        H599   1.082       .  S
C597        C598   1.387       .  A
C597        C618   1.480       .  S
C598        H600   1.082       .  S
C601        C602   1.206       .  T
C602        C603   1.413       .  S
C603        C604   1.206   1_545  T
C605        C606   1.207       .  T
C606        C607   1.413       .  S
C607        C608   1.207       .  T
C609        C610   1.210       .  T
C610        C611   1.418       .  S
C611        C612   1.209       .  T
C613        C614   1.210       .  T
C614        C615   1.419       .  S
C615        C616   1.210       .  T
C617        H619   1.086       .  S
C617        C618   1.344       .  D
C618        H620   1.086       .  S
C621        C622   1.210       .  T
C622        C623   1.419       .  S
C623        C624   1.210       .  T
C625        C626   1.210       .  T
C626        C627   1.419       .  S
C627        C628   1.210       .  T
C629        C630   1.345   1_465  D
C633        C634   1.207       .  T
C634        C635   1.415       .  S
C635        C636   1.207       .  T
C637        C638   1.206       .  T
C638        C639   1.413       .  S
C639        C640   1.206       .  T
